/Users/jonathanwahrer/Desktop/Msc/3_Semester/Drug_Design_Praktikum/waehrer_HTS_screening/HTS_experiment/out/docking_results/vina_output/6q9y/1637_docked.pdbqt
 OpenBabel03222220173D

 29 32  0  0  0  0  0  0  0  0999 V2000
    0.3560    6.5000  -13.9010 C   0  0  0  0  0  0  0  0  0  0  0  0
    0.5320    7.6240  -14.6040 N   0  0  0  0  0  0  0  0  0  0  0  0
    1.6620    8.3240  -14.6300 C   0  0  0  0  0  0  0  0  0  0  0  0
    2.7300    7.8430  -13.8550 C   0  0  0  0  0  0  0  0  0  0  0  0
    2.5470    6.7080  -13.1480 C   0  0  0  0  0  0  0  0  0  0  0  0
    1.3590    6.0390  -13.1770 N   0  0  0  0  0  0  0  0  0  0  0  0
    3.9010    8.7210  -13.8040 C   0  0  0  0  0  2  0  0  0  0  0  0
    3.3960   10.0170  -13.4720 N   0  0  0  0  0  0  0  0  0  0  0  0
    2.8710   10.5240  -14.8170 C   0  0  0  0  0  2  0  0  0  0  0  0
    1.8690    9.5850  -15.3900 C   0  0  0  0  0  2  0  0  0  0  0  0
    2.1240   10.0700  -12.6650 C   0  0  0  0  0  2  0  0  0  0  0  0
    1.9950   11.5890  -12.5210 C   0  0  0  0  0  0  0  0  0  0  0  0
    0.9270   12.3220  -12.8640 C   0  0  0  0  0  0  0  0  0  0  0  0
    0.8500   13.7330  -12.7100 C   0  0  0  0  0  0  0  0  0  0  0  0
   -0.4670   11.5000  -13.4790 Cl  0  0  0  0  0  0  0  0  0  0  0  0
    1.9930   14.3150  -12.1540 C   0  0  0  0  0  0  0  0  0  0  0  0
   -0.2040   14.5130  -13.0440 C   0  0  0  0  0  3  0  0  0  0  0  0
    1.9770   15.6680  -11.9820 C   0  0  0  0  0  3  0  0  0  0  0  0
    3.0200   13.6170  -11.8100 O   0  0  0  0  0  0  0  0  0  0  0  0
    0.8910   16.5020  -12.3270 C   0  0  0  0  0  3  0  0  0  0  0  0
   -0.2390   15.8680  -12.8760 C   0  0  0  0  0  3  0  0  0  0  0  0
    3.0680   12.2860  -11.9710 C   0  0  0  0  0  0  0  0  0  0  0  0
    4.1080   11.6020  -11.6310 O   0  0  0  0  0  0  0  0  0  0  0  0
    3.6040    6.2230  -12.3920 O   0  0  0  0  0  0  0  0  0  0  0  0
    4.5900    6.3500  -12.6410 H   0  0  0  0  0  0  0  0  0  0  0  0
   -1.2510    5.7490  -13.9020 S   0  0  0  0  0  0  0  0  0  0  0  0
   -1.5580    5.1030  -12.6460 O   0  0  0  0  0  0  0  0  0  0  0  0
   -1.2690    4.7850  -15.0500 O   0  0  0  0  0  0  0  0  0  0  0  0
   -2.4020    7.0860  -14.3070 C   0  0  0  0  0  1  0  0  0  0  0  0
  1  6  1  0  0  0  0
  2  1  2  0  0  0  0
  3  2  1  0  0  0  0
  3  4  2  0  0  0  0
  4  7  1  0  0  0  0
  4  5  1  0  0  0  0
  5 24  1  0  0  0  0
  6  5  2  0  0  0  0
  7  8  1  0  0  0  0
  8 11  1  0  0  0  0
  9  8  1  0  0  0  0
 10  9  1  0  0  0  0
 10  3  1  0  0  0  0
 11 12  1  0  0  0  0
 12 22  1  0  0  0  0
 13 14  1  0  0  0  0
 13 12  2  0  0  0  0
 14 16  1  0  0  0  0
 15 13  1  0  0  0  0
 16 18  2  0  0  0  0
 16 19  1  0  0  0  0
 17 21  1  0  0  0  0
 17 14  2  0  0  0  0
 20 18  1  0  0  0  0
 21 20  2  0  0  0  0
 22 19  1  0  0  0  0
 22 23  2  0  0  0  0
 25 24  1  0  0  0  0
 26  1  1  0  0  0  0
 26 27  2  0  0  0  0
 28 26  2  0  0  0  0
 29 26  1  0  0  0  0
M  END
>  <Pose>
1

>  <Score>
-7.240

$$$$
