/Users/jonathanwahrer/Desktop/Msc/3_Semester/Drug_Design_Praktikum/waehrer_HTS_screening/HTS_experiment/out/docking_results/vina_output/6q9y/1638_docked.pdbqt
 OpenBabel03222220183D

 38 41  0  0  1  0  0  0  0  0999 V2000
    2.8520    7.0430  -13.1860 C   0  0  0  0  0  0  0  0  0  0  0  0
    3.2700    5.8220  -12.6740 C   0  0  0  0  0  0  0  0  0  0  0  0
    4.5900    5.4950  -12.7020 N   0  0  0  0  0  0  0  0  0  0  0  0
    5.5270    6.3080  -13.2070 C   0  0  0  0  0  0  0  0  0  0  0  0
    5.1300    7.4920  -13.7050 N   0  0  0  0  0  0  0  0  0  0  0  0
    3.8370    7.8600  -13.7000 C   0  0  0  0  0  3  0  0  0  0  0  0
    6.9110    5.9660  -13.2320 N   0  0  0  0  0  0  0  0  0  0  0  0
    7.7400    6.0310  -12.0520 C   0  0  0  0  0  2  0  0  0  0  0  0
    8.4630    4.7520  -11.7330 C   0  0  0  0  0  2  0  0  0  0  0  0
    8.6680    3.8850  -12.9640 C   0  0  2  0  0  0  0  0  0  0  0  0
    8.8600    4.9080  -14.0960 C   0  0  0  0  0  2  0  0  0  0  0  0
    7.5570    5.5360  -14.4590 C   0  0  0  0  0  2  0  0  0  0  0  0
    7.6080    3.0530  -13.2820 N   0  0  0  0  0  0  0  0  0  0  0  0
    6.8760    2.3620  -12.2940 C   0  0  0  0  0  2  0  0  0  0  0  0
    5.4290    2.2410  -12.8010 C   0  0  0  0  0  2  0  0  0  0  0  0
    5.4540    2.3450  -14.3020 C   0  0  0  0  0  2  0  0  0  0  0  0
    6.6270    1.6220  -14.9120 C   0  0  0  0  0  2  0  0  0  0  0  0
    7.9370    2.0970  -14.3040 C   0  0  0  0  0  2  0  0  0  0  0  0
    9.9710    3.1970  -12.8200 C   0  0  0  0  0  0  0  0  0  0  0  0
   10.8610    3.2890  -13.7320 O   0  0  0  0  0  0  0  0  0  0  0  0
   10.3140    2.4190  -11.7090 N   0  0  0  0  0  0  0  0  0  0  0  0
   10.3150    1.3680  -11.8170 H   0  0  0  0  0  0  0  0  0  0  0  0
   10.5820    2.7650  -10.7660 H   0  0  0  0  0  0  0  0  0  0  0  0
    2.2820    4.9720  -12.1430 N   0  0  0  0  0  0  0  0  0  0  0  0
    2.1080    4.8560  -11.1240 H   0  0  0  0  0  0  0  0  0  0  0  0
    1.6840    4.4230  -12.7950 H   0  0  0  0  0  0  0  0  0  0  0  0
    1.1640    7.5090  -13.1700 S   0  0  0  0  0  0  0  0  0  0  0  0
    0.4060    6.8800  -14.2940 O   0  0  0  0  0  0  0  0  0  0  0  0
    0.6010    7.1230  -11.8260 O   0  0  0  0  0  0  0  0  0  0  0  0
    1.0920    9.2730  -13.2940 C   0  0  0  0  0  0  0  0  0  0  0  0
   -0.1220    9.9040  -13.4740 C   0  0  0  0  0  0  0  0  0  0  0  0
   -0.1300   11.2800  -13.5640 C   0  0  0  0  0  3  0  0  0  0  0  0
    1.0420   12.0250  -13.4800 C   0  0  0  0  0  3  0  0  0  0  0  0
    2.2340   11.3580  -13.3000 C   0  0  0  0  0  0  0  0  0  0  0  0
    2.2760    9.9820  -13.2060 C   0  0  0  0  0  3  0  0  0  0  0  0
    3.7350   12.2890  -13.1900 Cl  0  0  0  0  0  0  0  0  0  0  0  0
   -1.2520    9.1400  -13.5530 O   0  0  0  0  0  0  0  0  0  0  0  0
   -2.5640    9.6290  -13.5740 C   0  0  0  0  0  1  0  0  0  0  0  0
  1 27  1  0  0  0  0
  1  2  2  0  0  0  0
  2 24  1  0  0  0  0
  3  2  1  0  0  0  0
  4  3  2  0  0  0  0
  5  6  2  0  0  0  0
  5  4  1  0  0  0  0
  6  1  1  0  0  0  0
  7  4  1  0  0  0  0
  7  8  1  0  0  0  0
  8  9  1  0  0  0  0
 10 19  1  1  0  0  0
 10  9  1  0  0  0  0
 11 10  1  0  0  0  0
 12 11  1  0  0  0  0
 12  7  1  0  0  0  0
 13 10  1  0  0  0  0
 13 14  1  0  0  0  0
 15 14  1  0  0  0  0
 16 15  1  0  0  0  0
 17 18  1  0  0  0  0
 17 16  1  0  0  0  0
 18 13  1  0  0  0  0
 19 21  1  0  0  0  0
 20 19  2  0  0  0  0
 21 23  1  0  0  0  0
 22 21  1  0  0  0  0
 24 25  1  0  0  0  0
 26 24  1  0  0  0  0
 27 29  2  0  0  0  0
 28 27  2  0  0  0  0
 30 35  1  0  0  0  0
 30 27  1  0  0  0  0
 31 30  2  0  0  0  0
 32 33  2  0  0  0  0
 32 31  1  0  0  0  0
 33 34  1  0  0  0  0
 34 35  2  0  0  0  0
 34 36  1  0  0  0  0
 37 31  1  0  0  0  0
 38 37  1  0  0  0  0
M  END
>  <Pose>
1

>  <Score>
-7.547

$$$$
