/Users/jonathanwahrer/Desktop/Msc/3_Semester/Drug_Design_Praktikum/waehrer_HTS_screening/HTS_experiment/out/docking_results/vina_output/6q9y/1657_docked.pdbqt
 OpenBabel03222220183D

 33 36  0  0  1  0  0  0  0  0999 V2000
   -4.0260    9.8580  -13.1520 Cl  0  0  0  0  0  0  0  0  0  0  0  0
   -2.3660    9.3670  -13.5120 C   0  0  0  0  0  0  0  0  0  0  0  0
   -1.3730   10.3150  -13.6350 C   0  0  0  0  0  3  0  0  0  0  0  0
   -0.1000    9.9340  -13.9090 C   0  0  0  0  0  0  0  0  0  0  0  0
    0.2160    8.5780  -14.0700 C   0  0  0  0  0  0  0  0  0  0  0  0
   -0.7900    7.6500  -13.9430 C   0  0  0  0  0  3  0  0  0  0  0  0
   -2.0980    8.0230  -13.6620 C   0  0  0  0  0  3  0  0  0  0  0  0
    1.5500    8.1700  -14.3560 N   0  0  0  0  0  0  0  0  0  0  0  0
    2.6520    9.0200  -13.9310 C   0  0  2  0  0  0  0  0  0  0  0  0
    2.3160   10.3610  -14.3470 N   0  0  0  0  0  0  0  0  0  0  0  0
    1.0200   10.8600  -14.0590 C   0  0  0  0  0  0  0  0  0  0  0  0
    0.7700   12.0850  -13.9210 O   0  0  0  0  0  0  0  0  0  0  0  0
    3.8950    8.5620  -14.6180 C   0  0  0  0  0  2  0  0  0  0  0  0
    4.6160    7.4570  -13.8810 C   0  0  0  0  0  2  0  0  0  0  0  0
    3.7150    6.4000  -13.4710 N   0  0  0  0  0  0  0  0  0  0  0  0
    2.6050    6.6150  -12.5650 C   0  0  0  0  0  0  0  0  0  0  0  0
    1.8370    5.6370  -12.4210 O   0  0  0  0  0  0  0  0  0  0  0  0
    2.2350    7.8090  -11.7860 C   0  0  0  0  0  2  0  0  0  0  0  0
    2.7630    9.0610  -12.4200 C   0  0  0  0  0  2  0  0  0  0  0  0
    1.6710    7.2700  -14.8650 H   0  0  0  0  0  0  0  0  0  0  0  0
    2.9790   10.9850  -14.8490 H   0  0  0  0  0  0  0  0  0  0  0  0
    3.8620    5.0890  -13.9590 C   0  0  0  0  0  2  0  0  0  0  0  0
    5.0220    4.2800  -13.6630 C   0  0  0  0  0  0  0  0  0  0  0  0
    4.9140    3.0680  -14.2100 O   0  0  0  0  0  0  0  0  0  0  0  0
    6.1610    4.5590  -12.9420 N   0  0  0  0  0  0  0  0  0  0  0  0
    7.1940    3.4990  -12.8100 C   0  0  0  0  0  2  0  0  0  0  0  0
    6.4970    5.7710  -12.3050 C   0  0  0  0  0  2  0  0  0  0  0  0
    8.5170    4.2340  -13.0810 C   0  0  0  0  0  2  0  0  0  0  0  0
    8.3040    5.4350  -13.8170 N   0  0  0  0  0  0  0  0  0  0  0  0
    7.6150    6.4800  -13.1220 C   0  0  0  0  0  2  0  0  0  0  0  0
    9.3870    5.8720  -14.6310 C   0  0  0  0  0  3  0  0  0  0  0  0
   10.2970    6.8740  -13.9510 C   0  0  0  0  0  1  0  0  0  0  0  0
   10.2190    4.7460  -15.1820 C   0  0  0  0  0  1  0  0  0  0  0  0
  2  1  1  0  0  0  0
  3  2  1  0  0  0  0
  4  3  2  0  0  0  0
  5  6  2  0  0  0  0
  5  4  1  0  0  0  0
  6  7  1  0  0  0  0
  7  2  2  0  0  0  0
  8  5  1  0  0  0  0
  8  9  1  0  0  0  0
  9 13  1  6  0  0  0
  9 19  1  0  0  0  0
 10 11  1  0  0  0  0
 10  9  1  0  0  0  0
 11 12  2  0  0  0  0
 11  4  1  0  0  0  0
 13 14  1  0  0  0  0
 14 15  1  0  0  0  0
 15 16  1  0  0  0  0
 16 17  2  0  0  0  0
 16 18  1  0  0  0  0
 19 18  1  0  0  0  0
 20  8  1  0  0  0  0
 21 10  1  0  0  0  0
 22 23  1  0  0  0  0
 22 15  1  0  0  0  0
 23 25  1  0  0  0  0
 24 23  2  0  0  0  0
 25 26  1  0  0  0  0
 25 27  1  0  0  0  0
 28 26  1  0  0  0  0
 29 30  1  0  0  0  0
 29 28  1  0  0  0  0
 30 27  1  0  0  0  0
 31 32  1  0  0  0  0
 31 29  1  0  0  0  0
 33 31  1  0  0  0  0
M  END
>  <Pose>
1

>  <Score>
-7.258

$$$$
