/Users/jonathanwahrer/Desktop/Msc/3_Semester/Drug_Design_Praktikum/waehrer_HTS_screening/HTS_experiment/out/docking_results/vina_output/6q9y/1676_docked.pdbqt
 OpenBabel03222220193D

 25 28  0  0  0  0  0  0  0  0999 V2000
   -4.4300    9.0520  -14.6510 C   0  0  0  0  0  0  0  0  0  0  0  0
   -4.6370    8.0370  -15.3430 O   0  0  0  0  0  0  0  0  0  0  0  0
   -5.5210    9.9020  -14.3400 N   0  0  0  0  0  0  0  0  0  0  0  0
   -5.3640   10.7470  -13.7670 H   0  0  0  0  0  0  0  0  0  0  0  0
   -3.0720    9.3190  -14.1910 C   0  0  0  0  0  0  0  0  0  0  0  0
   -2.2250    8.2440  -13.9860 C   0  0  0  0  0  0  0  0  0  0  0  0
   -0.9410    8.4690  -13.5530 C   0  0  0  0  0  0  0  0  0  0  0  0
   -2.3840    6.9000  -14.1270 N   0  0  0  0  0  0  0  0  0  0  0  0
   -0.5200    9.7600  -13.3310 C   0  0  0  0  0  3  0  0  0  0  0  0
   -0.3550    7.2530  -13.4430 N   0  0  0  0  0  0  0  0  0  0  0  0
   -1.3590   10.8350  -13.5330 C   0  0  0  0  0  0  0  0  0  0  0  0
   -0.7470   12.6180  -13.2160 Br  0  0  0  0  0  0  0  0  0  0  0  0
   -2.6410   10.6180  -13.9650 C   0  0  0  0  0  3  0  0  0  0  0  0
   -1.2510    6.3480  -13.7940 N   0  0  0  0  0  0  0  0  0  0  0  0
   -3.2860    6.4910  -14.4470 H   0  0  0  0  0  0  0  0  0  0  0  0
   -6.8540    9.6130  -14.8090 C   0  0  0  0  0  2  0  0  0  0  0  0
   -7.7150   10.8320  -14.6130 C   0  0  0  0  0  0  0  0  0  0  0  0
   -8.5190   11.4090  -15.5210 N   0  0  0  0  0  0  0  0  0  0  0  0
   -9.1390   12.4860  -14.9920 C   0  0  0  0  0  0  0  0  0  0  0  0
   -8.8290   11.1010  -16.8990 C   0  0  0  0  0  2  0  0  0  0  0  0
   -8.7060   12.5760  -13.7280 N   0  0  0  0  0  0  0  0  0  0  0  0
  -10.0650   13.2230  -15.8940 C   0  0  0  0  0  2  0  0  0  0  0  0
   -7.8430   11.5750  -13.4970 N   0  0  0  0  0  0  0  0  0  0  0  0
  -11.0360   12.1530  -16.4130 C   0  0  0  0  0  2  0  0  0  0  0  0
  -10.3320   10.9930  -17.0360 C   0  0  0  0  0  2  0  0  0  0  0  0
  1  3  1  0  0  0  0
  1  5  1  0  0  0  0
  2  1  2  0  0  0  0
  3  4  1  0  0  0  0
  5  6  2  0  0  0  0
  5 13  1  0  0  0  0
  6  7  1  0  0  0  0
  7 10  1  0  0  0  0
  7  9  2  0  0  0  0
  8  6  1  0  0  0  0
  8 14  1  0  0  0  0
 11  9  1  0  0  0  0
 11 12  1  0  0  0  0
 13 11  2  0  0  0  0
 14 10  2  0  0  0  0
 15  8  1  0  0  0  0
 16 17  1  0  0  0  0
 16  3  1  0  0  0  0
 17 23  2  0  0  0  0
 18 19  1  0  0  0  0
 18 17  1  0  0  0  0
 19 21  2  0  0  0  0
 20 18  1  0  0  0  0
 21 23  1  0  0  0  0
 22 19  1  0  0  0  0
 24 22  1  0  0  0  0
 25 20  1  0  0  0  0
 25 24  1  0  0  0  0
M  END
>  <Pose>
1

>  <Score>
-9.649

$$$$
