/Users/jonathanwahrer/Desktop/Msc/3_Semester/Drug_Design_Praktikum/waehrer_HTS_screening/HTS_experiment/out/docking_results/vina_output/6q9y/1687_docked.pdbqt
 OpenBabel03222220193D

 27 30  0  0  0  0  0  0  0  0999 V2000
    0.0760   13.8630  -12.6060 N   0  0  0  0  0  0  0  0  0  0  0  0
    1.3750   13.5100  -12.7330 C   0  0  0  0  0  2  0  0  0  0  0  0
    1.7560   12.2530  -13.1480 C   0  0  0  0  0  0  0  0  0  0  0  0
    0.7360   11.2610  -13.4640 C   0  0  0  0  0  0  0  0  0  0  0  0
    1.3920   10.1520  -13.8330 N   0  0  0  0  0  2  0  0  0  0  0  0
    2.7180   10.3550  -13.7780 N   0  0  0  0  0  0  0  0  0  0  0  0
    2.9550   11.6110  -13.3690 C   0  0  0  0  0  0  0  0  0  0  0  0
    4.0990   12.0960  -13.2200 O   0  0  0  0  0  0  0  0  0  0  0  0
   -0.5840   11.6560  -13.3230 C   0  0  0  0  0  0  0  0  0  0  0  0
   -0.8420   12.9320  -12.9040 C   0  0  0  0  0  3  0  0  0  0  0  0
    3.4120    9.6060  -14.0290 H   0  0  0  0  0  0  0  0  0  0  0  0
   -0.2920   15.2030  -12.1640 C   0  0  0  0  0  2  0  0  0  0  0  0
   -0.4590   16.0700  -13.3930 C   0  0  0  0  0  2  0  0  0  0  0  0
   -1.6310   16.9140  -13.3010 N   0  0  0  0  0  0  0  0  0  0  0  0
   -2.6430   16.9570  -14.1930 C   0  0  0  0  0  3  0  0  0  0  0  0
   -3.5680   17.8500  -13.7990 N   0  0  0  0  0  0  0  0  0  0  0  0
   -3.1690   18.4110  -12.6250 C   0  0  0  0  0  0  0  0  0  0  0  0
   -3.7250   19.3650  -11.7960 C   0  0  0  0  0  3  0  0  0  0  0  0
   -1.9600   17.8040  -12.3480 C   0  0  0  0  0  0  0  0  0  0  0  0
   -3.0630   19.7360  -10.6450 C   0  0  0  0  0  0  0  0  0  0  0  0
   -3.7130   20.9460   -9.5400 Cl  0  0  0  0  0  0  0  0  0  0  0  0
   -1.8540   19.1210  -10.3790 C   0  0  0  0  0  3  0  0  0  0  0  0
   -1.2920   18.1670  -11.2030 C   0  0  0  0  0  3  0  0  0  0  0  0
   -1.6330   10.6900  -13.6310 C   0  0  0  0  0  0  0  0  0  0  0  0
   -2.4950   10.9800  -14.4980 O   0  0  0  0  0  0  0  0  0  0  0  0
   -1.7030    9.4770  -12.9990 O   0  0  0  0  0  0  0  0  0  0  0  0
   -1.6100    8.2580  -13.7170 C   0  0  0  0  0  1  0  0  0  0  0  0
  1 12  1  0  0  0  0
  2  1  1  0  0  0  0
  3  2  1  0  0  0  0
  4  9  1  0  0  0  0
  4  3  2  0  0  0  0
  5  6  1  0  0  0  0
  5  4  1  0  0  0  0
  6  7  1  0  0  0  0
  7  8  2  0  0  0  0
  7  3  1  0  0  0  0
  9 10  2  0  0  0  0
 10  1  1  0  0  0  0
 11  6  1  0  0  0  0
 13 14  1  0  0  0  0
 13 12  1  0  0  0  0
 14 19  1  0  0  0  0
 15 16  2  0  0  0  0
 15 14  1  0  0  0  0
 16 17  1  0  0  0  0
 17 19  2  0  0  0  0
 17 18  1  0  0  0  0
 18 20  2  0  0  0  0
 19 23  1  0  0  0  0
 20 22  1  0  0  0  0
 20 21  1  0  0  0  0
 23 22  2  0  0  0  0
 24  9  1  0  0  0  0
 24 26  1  0  0  0  0
 25 24  2  0  0  0  0
 27 26  1  0  0  0  0
M  END
>  <Pose>
1

>  <Score>
-8.675

$$$$
