/Users/jonathanwahrer/Desktop/Msc/3_Semester/Drug_Design_Praktikum/waehrer_HTS_screening/HTS_experiment/out/docking_results/vina_output/6q9y/1690_docked.pdbqt
 OpenBabel03222220203D

 34 37  0  0  1  0  0  0  0  0999 V2000
    1.5050   13.3820  -12.3080 C   0  0  0  0  0  0  0  0  0  0  0  0
    2.2270   13.8980  -11.4170 O   0  0  0  0  0  0  0  0  0  0  0  0
    2.0110   12.3490  -13.1530 N   0  0  0  0  0  0  0  0  0  0  0  0
    1.2410   11.7110  -14.1970 C   0  0  0  0  0  2  0  0  0  0  0  0
    1.5900   10.2150  -14.2810 C   0  0  2  0  0  0  0  0  0  0  0  0
    2.0640    9.8170  -12.9250 C   0  0  2  0  0  3  0  0  0  0  0  0
    3.4300   10.4150  -12.6800 C   0  0  0  0  0  2  0  0  0  0  0  0
    3.3750   11.9010  -12.9680 C   0  0  0  0  0  2  0  0  0  0  0  0
    2.5920   10.0640  -15.3820 C   0  0  0  0  0  1  0  0  0  0  0  0
    0.1170   13.8310  -12.5050 C   0  0  0  0  0  2  0  0  0  0  0  0
    0.0750   14.8710  -13.5880 C   0  0  0  0  0  2  0  0  0  0  0  0
   -0.7740   16.0000  -13.1370 C   0  0  0  0  0  0  0  0  0  0  0  0
   -0.6170   16.6670  -11.9610 N   0  0  0  0  0  0  0  0  0  0  0  0
   -1.5440   17.6250  -11.8360 C   0  0  0  0  0  0  0  0  0  0  0  0
    0.1440   16.4340  -11.2650 H   0  0  0  0  0  0  0  0  0  0  0  0
   -1.8160   18.5560  -10.8620 C   0  0  0  0  0  3  0  0  0  0  0  0
   -2.3150   17.5640  -12.9710 C   0  0  0  0  0  0  0  0  0  0  0  0
   -2.8610   19.4560  -10.9790 C   0  0  0  0  0  0  0  0  0  0  0  0
   -3.2160   20.6440   -9.7470 Cl  0  0  0  0  0  0  0  0  0  0  0  0
   -3.6330   19.3890  -12.1250 C   0  0  0  0  0  3  0  0  0  0  0  0
   -3.3610   18.4490  -13.1120 C   0  0  0  0  0  3  0  0  0  0  0  0
   -1.8150   16.5760  -13.7190 N   0  0  0  0  0  0  0  0  0  0  0  0
    0.3920    9.5790  -14.6370 O   0  0  0  0  0  0  0  0  0  0  0  0
   -0.2450    9.6210  -13.8540 H   0  0  0  0  0  0  0  0  0  0  0  0
    1.9890    8.4320  -12.6180 N   0  0  0  0  0  0  0  0  0  0  0  0
    2.9850    7.5640  -12.8450 C   0  0  0  0  0  3  0  0  0  0  0  0
    2.8750    6.2150  -12.5310 C   0  0  0  0  0  0  0  0  0  0  0  0
    1.7080    5.7530  -11.9680 C   0  0  0  0  0  0  0  0  0  0  0  0
    4.0270    5.2900  -12.8080 C   0  0  0  0  0  1  0  0  0  0  0  0
    1.6030    4.5210  -11.6780 O   0  0  0  0  0  0  0  0  0  0  0  0
    0.7140    6.6230  -11.7420 N   0  0  0  0  0  0  0  0  0  0  0  0
    0.8700    7.9190  -12.0640 C   0  0  0  0  0  0  0  0  0  0  0  0
   -0.1740    6.2860  -11.3160 H   0  0  0  0  0  0  0  0  0  0  0  0
   -0.0840    8.7480  -11.8460 O   0  0  0  0  0  0  0  0  0  0  0  0
  1  2  2  0  0  0  0
  3  8  1  0  0  0  0
  3  1  1  0  0  0  0
  4  3  1  0  0  0  0
  5  9  1  6  0  0  0
  5  4  1  0  0  0  0
  5  6  1  0  0  0  0
  6  7  1  6  0  0  0
  6 25  1  0  0  0  0
  8  7  1  0  0  0  0
 10  1  1  0  0  0  0
 11 12  1  0  0  0  0
 11 10  1  0  0  0  0
 12 13  1  0  0  0  0
 13 14  1  0  0  0  0
 13 15  1  0  0  0  0
 14 16  1  0  0  0  0
 17 14  2  0  0  0  0
 18 16  2  0  0  0  0
 18 19  1  0  0  0  0
 20 18  1  0  0  0  0
 21 17  1  0  0  0  0
 21 20  2  0  0  0  0
 22 12  2  0  0  0  0
 22 17  1  0  0  0  0
 23  5  1  0  0  0  0
 23 24  1  0  0  0  0
 25 32  1  0  0  0  0
 26 25  1  0  0  0  0
 26 27  2  0  0  0  0
 27 28  1  0  0  0  0
 28 31  1  0  0  0  0
 28 30  2  0  0  0  0
 29 27  1  0  0  0  0
 31 33  1  0  0  0  0
 32 34  2  0  0  0  0
 32 31  1  0  0  0  0
M  END
>  <Pose>
1

>  <Score>
-9.475

$$$$
