/Users/jonathanwahrer/Desktop/Msc/3_Semester/Drug_Design_Praktikum/waehrer_HTS_screening/HTS_experiment/out/docking_results/vina_output/6q9y/1691_docked.pdbqt
 OpenBabel03222220203D

 35 39  0  0  1  0  0  0  0  0999 V2000
   -1.0080   16.6640  -13.2940 C   0  0  0  0  0  0  0  0  0  0  0  0
   -1.3290   16.6440  -14.4980 O   0  0  0  0  0  0  0  0  0  0  0  0
    0.1740   16.0360  -12.8680 N   0  0  0  0  0  0  0  0  0  0  0  0
    1.1730   15.3070  -13.5820 C   0  0  0  0  0  2  0  0  0  0  0  0
    1.5140   14.1140  -12.6580 C   0  0  1  0  0  3  0  0  0  0  0  0
    1.3600   14.7710  -11.3320 C   0  0  2  0  0  3  0  0  0  0  0  0
    0.6200   16.0560  -11.4890 C   0  0  0  0  0  2  0  0  0  0  0  0
   -1.8790   17.3490  -12.3260 C   0  0  0  0  0  2  0  0  0  0  0  0
   -2.9870   18.0880  -13.0420 C   0  0  0  0  0  2  0  0  0  0  0  0
   -3.6280   19.0500  -12.0860 C   0  0  0  0  0  0  0  0  0  0  0  0
   -4.8950   19.4900  -12.1800 N   0  0  0  0  0  0  0  0  0  0  0  0
   -5.1830   20.3410  -11.1820 C   0  0  0  0  0  0  0  0  0  0  0  0
   -5.5950   19.2230  -12.9230 H   0  0  0  0  0  0  0  0  0  0  0  0
   -6.3290   21.0580  -10.8340 C   0  0  0  0  0  3  0  0  0  0  0  0
   -4.0360   20.4380  -10.4250 C   0  0  0  0  0  0  0  0  0  0  0  0
   -6.3190   21.8710   -9.7250 C   0  0  0  0  0  0  0  0  0  0  0  0
   -7.7370   22.7950   -9.2440 Cl  0  0  0  0  0  0  0  0  0  0  0  0
   -5.1790   21.9640   -8.9760 C   0  0  0  0  0  3  0  0  0  0  0  0
   -4.0270   21.2530   -9.3130 C   0  0  0  0  0  3  0  0  0  0  0  0
   -3.1160   19.6400  -11.0060 N   0  0  0  0  0  0  0  0  0  0  0  0
    0.5770   13.0560  -12.9100 N   0  0  0  0  0  0  0  0  0  0  0  0
    0.8370   11.7680  -13.1880 C   0  0  0  0  0  0  0  0  0  0  0  0
   -0.3870   11.0890  -13.3610 C   0  0  0  0  0  0  0  0  0  0  0  0
    1.9930   11.0860  -13.3140 N   0  0  0  0  0  0  0  0  0  0  0  0
   -1.3490   12.0080  -13.1800 N   0  0  0  0  0  0  0  0  0  0  0  0
   -0.4220    9.7450  -13.6580 C   0  0  0  0  0  0  0  0  0  0  0  0
   -0.7920   13.1860  -12.9100 C   0  0  0  0  0  3  0  0  0  0  0  0
   -1.5320    9.1660  -13.8070 O   0  0  0  0  0  0  0  0  0  0  0  0
    0.7460    9.1030  -13.7740 N   0  0  0  0  0  0  0  0  0  0  0  0
    1.8990    9.7530  -13.6080 C   0  0  0  0  0  0  0  0  0  0  0  0
    0.7410    7.6730  -14.0880 C   0  0  0  0  0  1  0  0  0  0  0  0
    2.9900    9.1340  -13.7220 O   0  0  0  0  0  0  0  0  0  0  0  0
    3.2640   11.7170  -13.1520 C   0  0  0  0  0  1  0  0  0  0  0  0
    2.5770   15.0740  -10.7220 O   0  0  0  0  0  0  0  0  0  0  0  0
    2.7560   16.0560  -10.7290 H   0  0  0  0  0  0  0  0  0  0  0  0
  1  3  1  0  0  0  0
  1  8  1  0  0  0  0
  2  1  2  0  0  0  0
  3  7  1  0  0  0  0
  4  3  1  0  0  0  0
  5  4  1  6  0  0  0
  5  6  1  0  0  0  0
  6 34  1  6  0  0  0
  7  6  1  0  0  0  0
  9  8  1  0  0  0  0
  9 10  1  0  0  0  0
 10 20  2  0  0  0  0
 11 10  1  0  0  0  0
 11 12  1  0  0  0  0
 12 14  2  0  0  0  0
 12 15  1  0  0  0  0
 13 11  1  0  0  0  0
 14 16  1  0  0  0  0
 15 19  2  0  0  0  0
 16 17  1  0  0  0  0
 16 18  2  0  0  0  0
 19 18  1  0  0  0  0
 20 15  1  0  0  0  0
 21 27  1  0  0  0  0
 21  5  1  0  0  0  0
 22 21  1  0  0  0  0
 23 22  2  0  0  0  0
 23 25  1  0  0  0  0
 24 22  1  0  0  0  0
 24 33  1  0  0  0  0
 25 27  2  0  0  0  0
 26 23  1  0  0  0  0
 28 26  2  0  0  0  0
 29 26  1  0  0  0  0
 29 30  1  0  0  0  0
 30 24  1  0  0  0  0
 31 29  1  0  0  0  0
 32 30  2  0  0  0  0
 35 34  1  0  0  0  0
M  END
>  <Pose>
1

>  <Score>
-11.386

$$$$
