/Users/jonathanwahrer/Desktop/Msc/3_Semester/Drug_Design_Praktikum/waehrer_HTS_screening/HTS_experiment/out/docking_results/vina_output/6q9y/1699_docked.pdbqt
 OpenBabel03222220203D

 31 34  0  0  1  0  0  0  0  0999 V2000
    3.0170   13.7350  -10.9290 Cl  0  0  0  0  0  0  0  0  0  0  0  0
    2.9580   12.5600  -12.2020 C   0  0  0  0  0  0  0  0  0  0  0  0
    1.8990   11.6680  -12.3000 C   0  0  0  0  0  3  0  0  0  0  0  0
    1.8380   10.7280  -13.3090 C   0  0  0  0  0  0  0  0  0  0  0  0
    2.8580   10.6950  -14.2190 C   0  0  0  0  0  0  0  0  0  0  0  0
    3.9410   11.5770  -14.1550 C   0  0  0  0  0  3  0  0  0  0  0  0
    3.9700   12.5030  -13.1360 C   0  0  0  0  0  3  0  0  0  0  0  0
    2.6280    9.6550  -15.1590 N   0  0  0  0  0  0  0  0  0  0  0  0
    1.4120    9.0100  -14.8160 C   0  0  0  0  0  0  0  0  0  0  0  0
    0.9830    8.0110  -15.4790 O   0  0  0  0  0  0  0  0  0  0  0  0
    0.8590    9.7010  -13.6590 C   0  0  2  0  0  0  0  0  0  0  0  0
   -0.4590   10.2780  -13.9390 N   0  0  0  0  0  0  0  0  0  0  0  0
   -1.2930    9.0980  -13.9030 C   0  0  1  0  0  3  0  0  0  0  0  0
   -0.7830    8.2580  -12.7770 C   0  0  2  0  0  3  0  0  0  0  0  0
    0.5570    8.8560  -12.4710 C   0  0  1  0  0  3  0  0  0  0  0  0
    1.5100    7.7430  -12.2430 C   0  0  0  0  0  0  0  0  0  0  0  0
    2.6840    7.9580  -11.8440 O   0  0  0  0  0  0  0  0  0  0  0  0
    0.8390    6.5320  -12.5520 N   0  0  0  0  0  0  0  0  0  0  0  0
   -0.3850    6.8790  -13.2090 C   0  0  0  0  0  0  0  0  0  0  0  0
   -1.0420    6.1970  -14.0020 O   0  0  0  0  0  0  0  0  0  0  0  0
    3.2530    9.4010  -15.9810 H   0  0  0  0  0  0  0  0  0  0  0  0
   -0.6910   10.8560  -13.1000 H   0  0  0  0  0  0  0  0  0  0  0  0
   -2.7570    9.4310  -13.7760 C   0  0  2  0  0  3  0  0  0  0  0  0
   -3.6400    8.4440  -14.4950 C   0  0  0  0  0  1  0  0  0  0  0  0
   -2.9470   10.7070  -14.2920 O   0  0  0  0  0  0  0  0  0  0  0  0
   -3.1280   10.7030  -15.2660 H   0  0  0  0  0  0  0  0  0  0  0  0
    1.2850    5.2210  -12.2640 C   0  0  0  0  0  2  0  0  0  0  0  0
    2.7320    4.9710  -12.0960 C   0  0  0  0  0  2  0  0  0  0  0  0
    3.3340    3.8520  -12.8560 C   0  0  0  0  0  2  0  0  0  0  0  0
    4.6550    4.0190  -13.2440 O   0  0  0  0  0  0  0  0  0  0  0  0
    4.9340    5.4070  -13.2050 C   0  0  0  0  0  1  0  0  0  0  0  0
  2  1  1  0  0  0  0
  3  2  1  0  0  0  0
  4  3  2  0  0  0  0
  5  6  2  0  0  0  0
  5  4  1  0  0  0  0
  6  7  1  0  0  0  0
  7  2  2  0  0  0  0
  8  9  1  0  0  0  0
  8  5  1  0  0  0  0
 10  9  2  0  0  0  0
 11  9  1  6  0  0  0
 11  4  1  0  0  0  0
 11 15  1  0  0  0  0
 12 13  1  0  0  0  0
 12 11  1  0  0  0  0
 12 22  1  0  0  0  0
 13 23  1  1  0  0  0
 13 14  1  0  0  0  0
 14 19  1  6  0  0  0
 14 15  1  0  0  0  0
 15 16  1  6  0  0  0
 16 17  2  0  0  0  0
 18 27  1  0  0  0  0
 18 16  1  0  0  0  0
 19 18  1  0  0  0  0
 20 19  2  0  0  0  0
 21  8  1  0  0  0  0
 23 24  1  6  0  0  0
 25 23  1  0  0  0  0
 26 25  1  0  0  0  0
 27 28  1  0  0  0  0
 29 28  1  0  0  0  0
 30 31  1  0  0  0  0
 30 29  1  0  0  0  0
M  END
>  <Pose>
1

>  <Score>
-6.366

$$$$
