/Users/jonathanwahrer/Desktop/Msc/3_Semester/Drug_Design_Praktikum/waehrer_HTS_screening/HTS_experiment/out/docking_results/vina_output/6q9y/1711_docked.pdbqt
 OpenBabel03222220203D

 30 33  0  0  0  0  0  0  0  0999 V2000
    1.4560   15.7440  -12.1920 N   0  0  0  0  0  0  0  0  0  0  0  0
    1.5590   15.1270  -10.9160 C   0  0  0  0  0  2  0  0  0  0  0  0
    2.6150   14.0530  -10.8550 C   0  0  0  0  0  2  0  0  0  0  0  0
    2.7680   13.3580  -12.1060 N   0  0  0  0  0  0  0  0  0  0  0  0
    2.9280   14.1190  -13.3220 C   0  0  0  0  0  2  0  0  0  0  0  0
    2.5700   15.5460  -13.0440 C   0  0  0  0  0  2  0  0  0  0  0  0
    2.7680   11.9440  -12.1910 C   0  0  0  0  0  0  0  0  0  0  0  0
    2.6310   11.2790  -11.1460 O   0  0  0  0  0  0  0  0  0  0  0  0
    2.9260   11.2360  -13.4810 C   0  0  0  0  0  2  0  0  0  0  0  0
    2.0060   10.1420  -13.5900 N   0  0  0  0  0  0  0  0  0  0  0  0
    2.2600    8.7460  -13.6770 C   0  0  0  0  0  0  0  0  0  0  0  0
    3.4030    8.2380  -13.6700 O   0  0  0  0  0  0  0  0  0  0  0  0
    0.9860    8.0530  -13.7700 C   0  0  0  0  0  0  0  0  0  0  0  0
   -0.0310    8.9770  -13.7430 C   0  0  0  0  0  0  0  0  0  0  0  0
    0.6680    6.7220  -13.8730 C   0  0  0  0  0  3  0  0  0  0  0  0
   -1.3480    8.5450  -13.8200 C   0  0  0  0  0  3  0  0  0  0  0  0
    0.5820   10.2940  -13.6300 C   0  0  0  0  0  0  0  0  0  0  0  0
   -1.6620    7.2180  -13.9230 C   0  0  0  0  0  3  0  0  0  0  0  0
   -0.6410    6.2690  -13.9510 C   0  0  0  0  0  3  0  0  0  0  0  0
   -0.0960   11.3540  -13.5810 O   0  0  0  0  0  0  0  0  0  0  0  0
   -0.0670   15.7700  -12.8970 S   0  0  0  0  0  0  0  0  0  0  0  0
    0.0990   15.8650  -14.4080 O   0  0  0  0  0  0  0  0  0  0  0  0
   -0.7310   14.4270  -12.6590 O   0  0  0  0  0  0  0  0  0  0  0  0
   -1.1400   16.9900  -12.3240 C   0  0  0  0  0  0  0  0  0  0  0  0
   -0.8400   17.6790  -11.1610 C   0  0  0  0  0  3  0  0  0  0  0  0
   -1.6630   18.6660  -10.6570 C   0  0  0  0  0  3  0  0  0  0  0  0
   -2.8210   18.9610  -11.3550 C   0  0  0  0  0  0  0  0  0  0  0  0
   -3.1070   18.2660  -12.5120 C   0  0  0  0  0  3  0  0  0  0  0  0
   -4.0150   20.3270  -10.7080 Br  0  0  0  0  0  0  0  0  0  0  0  0
   -2.2930   17.2780  -13.0260 C   0  0  0  0  0  3  0  0  0  0  0  0
  1  2  1  0  0  0  0
  2  3  1  0  0  0  0
  4  3  1  0  0  0  0
  5  6  1  0  0  0  0
  5  4  1  0  0  0  0
  6  1  1  0  0  0  0
  7  4  1  0  0  0  0
  7  8  2  0  0  0  0
  9  7  1  0  0  0  0
 10  9  1  0  0  0  0
 11 12  2  0  0  0  0
 11 10  1  0  0  0  0
 13 14  1  0  0  0  0
 13 11  1  0  0  0  0
 14 17  1  0  0  0  0
 15 13  2  0  0  0  0
 16 14  2  0  0  0  0
 17 10  1  0  0  0  0
 17 20  2  0  0  0  0
 18 16  1  0  0  0  0
 19 18  2  0  0  0  0
 19 15  1  0  0  0  0
 21 23  2  0  0  0  0
 21 24  1  0  0  0  0
 21  1  1  0  0  0  0
 22 21  2  0  0  0  0
 24 25  1  0  0  0  0
 25 26  2  0  0  0  0
 27 29  1  0  0  0  0
 27 26  1  0  0  0  0
 28 27  2  0  0  0  0
 30 28  1  0  0  0  0
 30 24  2  0  0  0  0
M  END
>  <Pose>
1

>  <Score>
-9.089

$$$$
