/Users/jonathanwahrer/Desktop/Msc/3_Semester/Drug_Design_Praktikum/waehrer_HTS_screening/HTS_experiment/out/docking_results/vina_output/6q9y/1721_docked.pdbqt
 OpenBabel03222220213D

 28 31  0  0  1  0  0  0  0  0999 V2000
    4.0020    7.8230  -14.6820 C   0  0  0  0  0  2  0  0  0  0  0  0
    4.9020    7.8220  -13.5910 N   0  0  0  0  0  0  0  0  0  0  0  0
    4.7960    8.4840  -12.8170 H   0  0  0  0  0  0  0  0  0  0  0  0
    5.9990    6.8790  -13.5770 C   0  0  0  0  0  0  0  0  0  0  0  0
    5.6770    5.5600  -13.3620 C   0  0  1  0  0  3  0  0  0  0  0  0
    6.7030    4.6200  -13.3380 C   0  0  0  0  0  0  0  0  0  0  0  0
    4.5550    4.8570  -13.1470 N   0  0  0  0  0  0  0  0  0  0  0  0
    7.9410    5.0880  -13.5320 N   0  0  0  0  0  4  0  0  0  0  0  0
    6.1580    3.4140  -13.1150 N   0  0  0  0  0  0  0  0  0  0  0  0
    8.2630    6.3570  -13.7410 C   0  0  0  0  0  0  0  0  0  0  0  0
    9.9160    6.8570  -13.9810 Cl  0  0  0  0  0  0  0  0  0  0  0  0
    7.2660    7.2710  -13.7630 N   0  0  0  0  0  0  0  0  0  0  0  0
    4.8260    3.5470  -12.9940 C   0  0  0  0  0  3  0  0  0  0  0  0
    3.6090    5.3230  -13.1130 H   0  0  0  0  0  0  0  0  0  0  0  0
    2.9810    8.8600  -14.6730 C   0  0  0  0  0  0  0  0  0  0  0  0
    2.9840    9.5910  -15.8090 O   0  0  0  0  0  0  0  0  0  0  0  0
    2.0450    9.2180  -13.7440 N   0  0  0  0  0  0  0  0  0  0  0  0
    1.8710    8.7160  -12.4240 C   0  0  0  0  0  2  0  0  0  0  0  0
    1.0510   10.2700  -14.1830 C   0  0  0  0  0  2  0  0  0  0  0  0
    0.5340    7.9960  -12.2620 C   0  0  0  0  0  2  0  0  0  0  0  0
   -0.3660    8.6560  -13.1630 N   0  0  0  0  0  0  0  0  0  0  0  0
   -0.2150   10.0700  -13.3440 C   0  0  0  0  0  2  0  0  0  0  0  0
   -1.3790    7.9730  -13.8600 C   0  0  0  0  0  0  0  0  0  0  0  0
   -2.6120    8.5230  -14.0610 N   0  0  0  0  0  0  0  0  0  0  0  0
   -3.6050    7.9360  -14.7050 C   0  0  0  0  0  3  0  0  0  0  0  0
   -3.4720    6.6850  -15.2380 C   0  0  0  0  0  3  0  0  0  0  0  0
   -2.2420    6.0660  -15.0700 C   0  0  0  0  0  3  0  0  0  0  0  0
   -1.2140    6.7020  -14.3910 C   0  0  0  0  0  3  0  0  0  0  0  0
  1 15  1  0  0  0  0
  1  2  1  0  0  0  0
  2  4  1  0  0  0  0
  2  3  1  0  0  0  0
  5  4  1  1  0  0  0
  5  6  1  0  0  0  0
  5  7  1  0  0  0  0
  6  9  1  0  0  0  0
  7 14  1  0  0  0  0
  7 13  1  0  0  0  0
  8  6  2  0  0  0  0
  9 13  2  0  0  0  0
 10  8  2  0  0  0  0
 11 10  1  0  0  0  0
 12 10  1  0  0  0  0
 12  4  2  0  0  0  0
 15 17  1  0  0  0  0
 16 15  2  0  0  0  0
 17 18  1  0  0  0  0
 18 20  1  0  0  0  0
 19 17  1  0  0  0  0
 19 22  1  0  0  0  0
 21 20  1  0  0  0  0
 22 21  1  0  0  0  0
 23 21  1  0  0  0  0
 24 23  1  0  0  0  0
 25 24  2  0  0  0  0
 26 27  2  0  0  0  0
 26 25  1  0  0  0  0
 27 28  1  0  0  0  0
 28 23  2  0  0  0  0
M  END
>  <Pose>
1

>  <Score>
-8.304

$$$$
