/Users/jonathanwahrer/Desktop/Msc/3_Semester/Drug_Design_Praktikum/waehrer_HTS_screening/HTS_experiment/out/docking_results/vina_output/6q9y/1726_docked.pdbqt
 OpenBabel03222220213D

 30 33  0  0  1  0  0  0  0  0999 V2000
    2.5460    8.1340  -13.8540 N   0  0  0  0  0  4  0  0  0  0  0  0
    1.9980    8.6940  -15.0440 C   0  0  0  0  0  2  0  0  0  0  0  0
    2.1990   10.1670  -15.2100 C   0  0  1  0  0  3  0  0  0  0  0  0
    1.3630   11.0090  -14.3130 C   0  0  0  0  0  2  0  0  0  0  0  0
    2.0920   11.7490  -13.3220 N   0  0  0  0  0  0  0  0  0  0  0  0
    3.3180   11.4230  -12.8730 C   0  0  0  0  0  0  0  0  0  0  0  0
    4.0120   12.1250  -11.9300 C   0  0  0  0  0  3  0  0  0  0  0  0
    3.4330   13.2540  -11.3880 C   0  0  0  0  0  3  0  0  0  0  0  0
    2.1810   13.5950  -11.8410 C   0  0  0  0  0  3  0  0  0  0  0  0
    1.5100   12.8630  -12.7920 C   0  0  0  0  0  0  0  0  0  0  0  0
    0.3640   13.2060  -13.1830 O   0  0  0  0  0  0  0  0  0  0  0  0
    3.8960   10.1760  -13.5060 C   0  0  1  0  0  3  0  0  0  0  0  0
    3.1570    9.0260  -12.9460 C   0  0  0  0  0  2  0  0  0  0  0  0
    3.6990   10.3950  -14.9860 C   0  0  0  0  0  2  0  0  0  0  0  0
    3.2810    7.4220  -14.1490 H   0  0  0  0  0  0  0  0  0  0  0  0
    1.4990    7.3520  -13.2270 C   0  0  0  0  0  2  0  0  0  0  0  0
    1.1050    7.8440  -11.8710 C   0  0  1  0  0  3  0  0  0  0  0  0
   -0.4040    8.0870  -11.9160 C   0  0  0  0  0  2  0  0  0  0  0  0
   -0.7510    8.1990  -13.2650 O   0  0  0  0  0  0  0  0  0  0  0  0
   -1.9900    8.1540  -13.8120 C   0  0  0  0  0  0  0  0  0  0  0  0
   -2.7570    9.2950  -13.8910 C   0  0  0  0  0  0  0  0  0  0  0  0
   -2.0310   10.9230  -13.2190 Br  0  0  0  0  0  0  0  0  0  0  0  0
   -4.0350    9.2900  -14.4450 C   0  0  0  0  0  3  0  0  0  0  0  0
   -4.5550    8.1240  -14.9270 C   0  0  0  0  0  0  0  0  0  0  0  0
   -3.8100    6.9620  -14.8610 C   0  0  0  0  0  3  0  0  0  0  0  0
   -5.9280    8.1260  -15.5200 C   0  0  0  0  0  1  0  0  0  0  0  0
   -2.5290    6.9860  -14.3020 C   0  0  0  0  0  0  0  0  0  0  0  0
   -1.4950    5.3900  -14.2080 Br  0  0  0  0  0  0  0  0  0  0  0  0
    1.4370    6.8940  -10.9080 O   0  0  0  0  0  0  0  0  0  0  0  0
    0.6240    6.3230  -10.7950 H   0  0  0  0  0  0  0  0  0  0  0  0
  1 16  1  0  0  0  0
  1 13  1  0  0  0  0
  2  1  1  0  0  0  0
  3  2  1  1  0  0  0
  3 14  1  0  0  0  0
  3  4  1  0  0  0  0
  4  5  1  0  0  0  0
  5  6  1  0  0  0  0
  5 10  1  0  0  0  0
  6  7  2  0  0  0  0
  7  8  1  0  0  0  0
  9  8  2  0  0  0  0
 10  9  1  0  0  0  0
 11 10  2  0  0  0  0
 12 14  1  6  0  0  0
 12 13  1  0  0  0  0
 12  6  1  0  0  0  0
 15  1  1  0  0  0  0
 17 16  1  6  0  0  0
 17 29  1  0  0  0  0
 18 17  1  0  0  0  0
 19 18  1  0  0  0  0
 20 19  1  0  0  0  0
 21 20  1  0  0  0  0
 21 22  1  0  0  0  0
 23 21  2  0  0  0  0
 24 25  2  0  0  0  0
 24 23  1  0  0  0  0
 25 27  1  0  0  0  0
 26 24  1  0  0  0  0
 27 28  1  0  0  0  0
 27 20  2  0  0  0  0
 29 30  1  0  0  0  0
M  END
>  <Pose>
1

>  <Score>
-8.653

$$$$
