/Users/jonathanwahrer/Desktop/Msc/3_Semester/Drug_Design_Praktikum/waehrer_HTS_screening/HTS_experiment/out/docking_results/vina_output/6q9y/1736_docked.pdbqt
 OpenBabel03222220223D

 35 39  0  0  1  0  0  0  0  0999 V2000
    2.1520   13.5210  -10.5550 Cl  0  0  0  0  0  0  0  0  0  0  0  0
    2.7940   12.5930  -11.9190 C   0  0  0  0  0  0  0  0  0  0  0  0
    2.3970   11.2980  -12.1400 C   0  0  0  0  0  3  0  0  0  0  0  0
    2.8990   10.5870  -13.1970 C   0  0  0  0  0  0  0  0  0  0  0  0
    3.8060   11.1820  -14.0370 C   0  0  0  0  0  0  0  0  0  0  0  0
    4.2280   12.4960  -13.8390 C   0  0  0  0  0  3  0  0  0  0  0  0
    3.7050   13.1840  -12.7670 C   0  0  0  0  0  3  0  0  0  0  0  0
    4.2110   10.2960  -15.0640 N   0  0  0  0  0  0  0  0  0  0  0  0
    3.5130    9.0790  -14.8460 C   0  0  0  0  0  0  0  0  0  0  0  0
    3.6100    8.0480  -15.5460 O   0  0  0  0  0  0  0  0  0  0  0  0
    2.6450    9.2030  -13.6590 C   0  0  1  0  0  0  0  0  0  0  0  0
    2.9480    8.2220  -12.6460 N   0  0  0  0  0  0  0  0  0  0  0  0
    1.7160    7.8270  -12.0390 C   0  0  1  0  0  3  0  0  0  0  0  0
    0.6540    7.9050  -13.1110 C   0  0  2  0  0  3  0  0  0  0  0  0
    1.2310    8.9470  -14.0340 C   0  0  1  0  0  3  0  0  0  0  0  0
    0.3450   10.1330  -13.9340 C   0  0  0  0  0  0  0  0  0  0  0  0
    0.5890   11.3310  -14.2270 O   0  0  0  0  0  0  0  0  0  0  0  0
   -0.9090    9.6440  -13.4170 N   0  0  0  0  0  0  0  0  0  0  0  0
   -0.6300    8.4720  -12.6240 C   0  0  0  0  0  0  0  0  0  0  0  0
   -1.3280    7.9990  -11.6900 O   0  0  0  0  0  0  0  0  0  0  0  0
    4.8960   10.4620  -15.8580 H   0  0  0  0  0  0  0  0  0  0  0  0
    3.6180    8.6020  -11.9700 H   0  0  0  0  0  0  0  0  0  0  0  0
    1.8030    6.4410  -11.4370 C   0  0  1  0  0  3  0  0  0  0  0  0
    0.7320    5.6020  -12.1260 C   0  0  0  0  0  1  0  0  0  0  0  0
    3.0280    5.8970  -11.8110 O   0  0  0  0  0  0  0  0  0  0  0  0
    2.8780    5.1000  -12.3680 H   0  0  0  0  0  0  0  0  0  0  0  0
   -2.2220   10.2100  -13.6410 C   0  0  0  0  0  2  0  0  0  0  0  0
   -3.1300    9.1810  -14.2330 C   0  0  0  0  0  0  0  0  0  0  0  0
   -4.4880    9.4020  -14.3160 C   0  0  0  0  0  0  0  0  0  0  0  0
   -5.3080    8.4330  -14.8690 C   0  0  0  0  0  3  0  0  0  0  0  0
   -4.8080    7.2380  -15.3480 C   0  0  0  0  0  3  0  0  0  0  0  0
   -3.4520    7.0070  -15.2690 C   0  0  0  0  0  3  0  0  0  0  0  0
   -2.6480    7.9780  -14.7180 C   0  0  0  0  0  3  0  0  0  0  0  0
   -4.9930   10.6130  -13.8310 O   0  0  0  0  0  0  0  0  0  0  0  0
   -6.4090   10.8210  -13.8690 C   0  0  0  0  0  1  0  0  0  0  0  0
  2  1  1  0  0  0  0
  3  2  1  0  0  0  0
  4  3  2  0  0  0  0
  5  6  2  0  0  0  0
  5  4  1  0  0  0  0
  6  7  1  0  0  0  0
  7  2  2  0  0  0  0
  8  9  1  0  0  0  0
  8  5  1  0  0  0  0
 10  9  2  0  0  0  0
 11  9  1  6  0  0  0
 11  4  1  0  0  0  0
 11 12  1  0  0  0  0
 12 13  1  0  0  0  0
 12 22  1  0  0  0  0
 13 23  1  6  0  0  0
 14 19  1  1  0  0  0
 14 13  1  0  0  0  0
 15 16  1  1  0  0  0
 15 11  1  0  0  0  0
 15 14  1  0  0  0  0
 16 18  1  0  0  0  0
 17 16  2  0  0  0  0
 18 19  1  0  0  0  0
 19 20  2  0  0  0  0
 21  8  1  0  0  0  0
 23 24  1  6  0  0  0
 25 23  1  0  0  0  0
 26 25  1  0  0  0  0
 27 18  1  0  0  0  0
 28 27  1  0  0  0  0
 29 28  1  0  0  0  0
 29 34  1  0  0  0  0
 30 29  2  0  0  0  0
 31 32  2  0  0  0  0
 31 30  1  0  0  0  0
 32 33  1  0  0  0  0
 33 28  2  0  0  0  0
 35 34  1  0  0  0  0
M  END
>  <Pose>
1

>  <Score>
-7.315

$$$$
