/Users/jonathanwahrer/Desktop/Msc/3_Semester/Drug_Design_Praktikum/waehrer_HTS_screening/HTS_experiment/out/docking_results/vina_output/6q9y/1741_docked.pdbqt
 OpenBabel03222220223D

 28 31  0  0  0  0  0  0  0  0999 V2000
    2.0600    9.9130  -12.7990 C   0  0  0  0  0  0  0  0  0  0  0  0
    2.2120   10.0350  -11.5680 O   0  0  0  0  0  0  0  0  0  0  0  0
    2.0720    8.6420  -13.3920 N   0  0  0  0  0  0  0  0  0  0  0  0
    2.2490    7.4170  -12.6440 C   0  0  0  0  0  2  0  0  0  0  0  0
    1.1020    6.4960  -13.0270 C   0  0  0  0  0  2  0  0  0  0  0  0
    0.1580    7.1500  -13.8330 N   0  0  0  0  0  0  0  0  0  0  0  0
    0.5570    7.7560  -15.0360 C   0  0  0  0  0  2  0  0  0  0  0  0
    1.8990    8.4520  -14.8400 C   0  0  0  0  0  2  0  0  0  0  0  0
    1.8660   11.1510  -13.6270 C   0  0  0  0  0  2  0  0  0  0  0  0
    2.0990   12.3540  -12.8570 N   0  0  0  0  0  0  0  0  0  0  0  0
    1.2530   13.4220  -12.7880 C   0  0  0  0  0  0  0  0  0  0  0  0
    1.7800   14.3970  -11.9730 C   0  0  0  0  0  0  0  0  0  0  0  0
    0.0320   13.6250  -13.3880 C   0  0  0  0  0  3  0  0  0  0  0  0
    1.1140   15.5940  -11.7310 C   0  0  0  0  0  3  0  0  0  0  0  0
    2.9920   13.9230  -11.5190 C   0  0  0  0  0  3  0  0  0  0  0  0
   -0.1260   15.8070  -12.3370 C   0  0  0  0  0  0  0  0  0  0  0  0
   -1.0720   17.4460  -12.0240 Br  0  0  0  0  0  0  0  0  0  0  0  0
   -0.6390   14.8200  -13.1510 C   0  0  0  0  0  3  0  0  0  0  0  0
    3.1440   12.6740  -12.0840 C   0  0  0  0  0  3  0  0  0  0  0  0
   -1.1480    7.3460  -13.3550 C   0  0  0  0  0  2  0  0  0  0  0  0
   -2.2180    6.9760  -14.3190 C   0  0  0  0  0  0  0  0  0  0  0  0
   -2.1490    5.8260  -14.8200 O   0  0  0  0  0  0  0  0  0  0  0  0
   -3.2700    7.8300  -14.6850 N   0  0  0  0  0  0  0  0  0  0  0  0
   -4.2680    7.3940  -15.6410 C   0  0  0  0  0  2  0  0  0  0  0  0
   -3.4440    9.1700  -14.1620 C   0  0  0  0  0  2  0  0  0  0  0  0
   -5.6220    7.5860  -14.9890 C   0  0  0  0  0  2  0  0  0  0  0  0
   -5.7670    8.9730  -14.8320 O   0  0  0  0  0  0  0  0  0  0  0  0
   -4.8800    9.4750  -13.9110 C   0  0  0  0  0  2  0  0  0  0  0  0
  1  2  2  0  0  0  0
  3  1  1  0  0  0  0
  3  4  1  0  0  0  0
  5  4  1  0  0  0  0
  6 20  1  0  0  0  0
  6  5  1  0  0  0  0
  7  8  1  0  0  0  0
  7  6  1  0  0  0  0
  8  3  1  0  0  0  0
  9 10  1  0  0  0  0
  9  1  1  0  0  0  0
 10 11  1  0  0  0  0
 10 19  1  0  0  0  0
 11 12  1  0  0  0  0
 12 14  2  0  0  0  0
 12 15  1  0  0  0  0
 13 18  1  0  0  0  0
 13 11  2  0  0  0  0
 16 17  1  0  0  0  0
 16 14  1  0  0  0  0
 18 16  2  0  0  0  0
 19 15  2  0  0  0  0
 21 20  1  0  0  0  0
 22 21  2  0  0  0  0
 23 21  1  0  0  0  0
 23 25  1  0  0  0  0
 24 26  1  0  0  0  0
 24 23  1  0  0  0  0
 25 28  1  0  0  0  0
 26 27  1  0  0  0  0
 27 28  1  0  0  0  0
M  END
>  <Pose>
1

>  <Score>
-8.299

$$$$
