/Users/jonathanwahrer/Desktop/Msc/3_Semester/Drug_Design_Praktikum/waehrer_HTS_screening/HTS_experiment/out/docking_results/vina_output/6q9y/1744_docked.pdbqt
 OpenBabel03222220223D

 34 37  0  0  1  0  0  0  0  0999 V2000
    1.2530    7.6230  -13.9540 N   0  0  0  0  0  0  0  0  0  0  0  0
    1.8420    6.7730  -12.9710 C   0  0  0  0  0  0  0  0  0  0  0  0
    1.1860    5.9750  -12.2580 O   0  0  0  0  0  0  0  0  0  0  0  0
    3.2560    6.8320  -12.7900 N   0  0  0  0  0  0  0  0  0  0  0  0
    4.0320    7.7350  -13.5920 C   0  0  0  0  0  0  0  0  0  0  0  0
    5.2970    7.5670  -13.5490 O   0  0  0  0  0  0  0  0  0  0  0  0
    3.4200    8.7930  -14.4160 C   0  0  1  0  0  3  0  0  0  0  0  0
    2.0040    8.5200  -14.7610 C   0  0  0  0  0  0  0  0  0  0  0  0
    1.5130    9.0970  -15.7630 O   0  0  0  0  0  0  0  0  0  0  0  0
    3.7560    6.2330  -12.0830 H   0  0  0  0  0  0  0  0  0  0  0  0
    3.5330   10.1330  -13.7280 C   0  0  1  0  0  3  0  0  0  0  0  0
    3.2540   10.3360  -12.4530 C   0  0  0  0  0  2  0  0  0  0  0  0
    3.5010   11.7770  -12.2260 C   0  0  1  0  0  3  0  0  0  0  0  0
    4.5210   12.0660  -13.2180 N   0  0  0  0  0  0  0  0  0  0  0  0
    3.9730   11.3570  -14.3150 N   0  0  0  0  0  0  0  0  0  0  0  0
    4.6840   13.0590  -13.4020 H   0  0  0  0  0  0  0  0  0  0  0  0
    3.8780   11.5880  -15.3040 H   0  0  0  0  0  0  0  0  0  0  0  0
    2.2690   12.5720  -12.4910 C   0  0  0  0  0  0  0  0  0  0  0  0
    1.1120   12.0740  -13.0190 C   0  0  0  0  0  3  0  0  0  0  0  0
   -0.0160   12.8460  -13.2080 C   0  0  0  0  0  0  0  0  0  0  0  0
   -0.0120   14.1850  -12.8610 C   0  0  0  0  0  0  0  0  0  0  0  0
    1.1800   14.6920  -12.3190 C   0  0  0  0  0  3  0  0  0  0  0  0
    2.2950   13.9080  -12.1380 C   0  0  0  0  0  3  0  0  0  0  0  0
   -1.1820   12.2850  -13.7580 O   0  0  0  0  0  0  0  0  0  0  0  0
   -1.5370   12.6750  -14.6250 H   0  0  0  0  0  0  0  0  0  0  0  0
   -1.1180   14.9830  -13.0310 O   0  0  0  0  0  0  0  0  0  0  0  0
   -1.0080   16.3780  -13.2230 C   0  0  0  0  0  1  0  0  0  0  0  0
   -0.1610    7.5600  -14.1050 C   0  0  0  0  0  0  0  0  0  0  0  0
   -0.9810    8.5750  -13.6440 C   0  0  0  0  0  3  0  0  0  0  0  0
   -2.3460    8.5530  -13.7870 C   0  0  0  0  0  0  0  0  0  0  0  0
   -3.3380    9.8530  -13.1840 Cl  0  0  0  0  0  0  0  0  0  0  0  0
   -2.9050    7.4600  -14.4230 C   0  0  0  0  0  3  0  0  0  0  0  0
   -2.1230    6.4260  -14.8970 C   0  0  0  0  0  3  0  0  0  0  0  0
   -0.7440    6.4970  -14.7260 C   0  0  0  0  0  3  0  0  0  0  0  0
  1  2  1  0  0  0  0
  2  4  1  0  0  0  0
  2  3  2  0  0  0  0
  4 10  1  0  0  0  0
  5  6  2  0  0  0  0
  5  4  1  0  0  0  0
  7  8  1  1  0  0  0
  7 11  1  0  0  0  0
  7  5  1  0  0  0  0
  8  1  1  0  0  0  0
  9  8  2  0  0  0  0
 11 12  1  1  0  0  0
 12 13  1  0  0  0  0
 13 18  1  6  0  0  0
 14 13  1  0  0  0  0
 15 11  1  0  0  0  0
 15 14  1  0  0  0  0
 16 14  1  0  0  0  0
 17 15  1  0  0  0  0
 18 23  1  0  0  0  0
 19 18  2  0  0  0  0
 20 19  1  0  0  0  0
 20 21  2  0  0  0  0
 21 22  1  0  0  0  0
 22 23  2  0  0  0  0
 24 20  1  0  0  0  0
 25 24  1  0  0  0  0
 26 21  1  0  0  0  0
 27 26  1  0  0  0  0
 28  1  1  0  0  0  0
 28 29  1  0  0  0  0
 30 29  2  0  0  0  0
 30 31  1  0  0  0  0
 32 30  1  0  0  0  0
 33 34  1  0  0  0  0
 33 32  2  0  0  0  0
 34 28  2  0  0  0  0
M  END
>  <Pose>
1

>  <Score>
-8.547

$$$$
