/Users/jonathanwahrer/Desktop/Msc/3_Semester/Drug_Design_Praktikum/waehrer_HTS_screening/HTS_experiment/out/docking_results/vina_output/6q9y/1745_docked.pdbqt
 OpenBabel03222220223D

 34 37  0  0  1  0  0  0  0  0999 V2000
    1.9730   10.8790  -13.6340 N   0  0  0  0  0  0  0  0  0  0  0  0
    2.0200   10.3170  -14.9350 C   0  0  0  0  0  0  0  0  0  0  0  0
    1.3420   10.7780  -15.8640 O   0  0  0  0  0  0  0  0  0  0  0  0
    2.8650    9.1870  -15.1980 N   0  0  0  0  0  0  0  0  0  0  0  0
    3.6680    8.6160  -14.1670 C   0  0  0  0  0  0  0  0  0  0  0  0
    4.6920    7.9540  -14.4110 O   0  0  0  0  0  0  0  0  0  0  0  0
    3.2490    8.8300  -12.7360 C   0  0  1  0  0  3  0  0  0  0  0  0
    2.8090   10.2390  -12.6460 C   0  0  0  0  0  0  0  0  0  0  0  0
    3.1620   10.9770  -11.6570 O   0  0  0  0  0  0  0  0  0  0  0  0
    2.8840    8.7950  -16.1480 H   0  0  0  0  0  0  0  0  0  0  0  0
    2.1710    7.8560  -12.3900 C   0  0  2  0  0  3  0  0  0  0  0  0
    1.1210    8.0200  -11.6120 C   0  0  0  0  0  2  0  0  0  0  0  0
    0.3440    6.7510  -11.5880 C   0  0  2  0  0  3  0  0  0  0  0  0
    1.4050    5.7740  -11.9420 N   0  0  0  0  0  0  0  0  0  0  0  0
    2.1490    6.5070  -12.8760 N   0  0  0  0  0  0  0  0  0  0  0  0
    1.9540    5.5290  -11.0940 H   0  0  0  0  0  0  0  0  0  0  0  0
    2.5920    6.1760  -13.7270 H   0  0  0  0  0  0  0  0  0  0  0  0
   -0.6040    6.7410  -12.7350 C   0  0  0  0  0  0  0  0  0  0  0  0
   -1.2920    7.9080  -13.1330 C   0  0  0  0  0  3  0  0  0  0  0  0
   -2.1410    7.9550  -14.1950 C   0  0  0  0  0  0  0  0  0  0  0  0
   -2.3590    6.8130  -14.9420 C   0  0  0  0  0  0  0  0  0  0  0  0
   -1.7050    5.6570  -14.5830 C   0  0  0  0  0  3  0  0  0  0  0  0
   -0.8490    5.6240  -13.5050 C   0  0  0  0  0  3  0  0  0  0  0  0
   -2.8020    9.1410  -14.5440 O   0  0  0  0  0  0  0  0  0  0  0  0
   -3.9960    9.4910  -13.8780 C   0  0  0  0  0  1  0  0  0  0  0  0
   -3.2220    6.8440  -16.0330 O   0  0  0  0  0  0  0  0  0  0  0  0
   -3.7570    6.0150  -16.2580 H   0  0  0  0  0  0  0  0  0  0  0  0
    1.2000   12.0150  -13.2720 C   0  0  0  0  0  0  0  0  0  0  0  0
    1.8870   13.1630  -12.8580 C   0  0  0  0  0  3  0  0  0  0  0  0
    1.2310   14.3100  -12.4730 C   0  0  0  0  0  0  0  0  0  0  0  0
    2.1700   15.6890  -11.9680 Cl  0  0  0  0  0  0  0  0  0  0  0  0
   -0.1370   14.3820  -12.4770 C   0  0  0  0  0  3  0  0  0  0  0  0
   -0.8320   13.2420  -12.8900 C   0  0  0  0  0  3  0  0  0  0  0  0
   -0.1670   12.0970  -13.2730 C   0  0  0  0  0  3  0  0  0  0  0  0
  1 28  1  0  0  0  0
  1  8  1  0  0  0  0
  2  1  1  0  0  0  0
  3  2  2  0  0  0  0
  4  2  1  0  0  0  0
  4  5  1  0  0  0  0
  6  5  2  0  0  0  0
  7  5  1  6  0  0  0
  7  8  1  0  0  0  0
  7 11  1  0  0  0  0
  8  9  2  0  0  0  0
 10  4  1  0  0  0  0
 11 12  1  1  0  0  0
 12 13  1  0  0  0  0
 13 18  1  6  0  0  0
 14 13  1  0  0  0  0
 14 16  1  0  0  0  0
 15 11  1  0  0  0  0
 15 14  1  0  0  0  0
 17 15  1  0  0  0  0
 19 18  1  0  0  0  0
 20 19  2  0  0  0  0
 21 22  2  0  0  0  0
 21 20  1  0  0  0  0
 22 23  1  0  0  0  0
 23 18  2  0  0  0  0
 24 20  1  0  0  0  0
 24 25  1  0  0  0  0
 26 21  1  0  0  0  0
 27 26  1  0  0  0  0
 28 29  1  0  0  0  0
 29 30  2  0  0  0  0
 30 31  1  0  0  0  0
 32 30  1  0  0  0  0
 33 32  2  0  0  0  0
 34 28  2  0  0  0  0
 34 33  1  0  0  0  0
M  END
>  <Pose>
1

>  <Score>
-8.116

$$$$
