/Users/jonathanwahrer/Desktop/Msc/3_Semester/Drug_Design_Praktikum/waehrer_HTS_screening/HTS_experiment/out/docking_results/vina_output/6q9y/1750_docked.pdbqt
 OpenBabel03222220233D

 27 30  0  0  0  0  0  0  0  0999 V2000
    3.5280   10.2750  -13.8070 N   0  0  0  0  0  0  0  0  0  0  0  0
    2.7550   10.1910  -15.0080 C   0  0  0  0  0  2  0  0  0  0  0  0
    1.4760    9.3960  -14.8240 C   0  0  0  0  0  2  0  0  0  0  0  0
    1.7850    8.1620  -14.1520 N   0  0  0  0  0  0  0  0  0  0  0  0
    3.1790    7.8490  -13.9070 C   0  0  0  0  0  2  0  0  0  0  0  0
    3.7810    9.0270  -13.1720 C   0  0  0  0  0  2  0  0  0  0  0  0
    0.7840    7.2440  -13.7230 C   0  0  0  0  0  0  0  0  0  0  0  0
    1.0790    6.1760  -13.1380 O   0  0  0  0  0  0  0  0  0  0  0  0
   -0.6340    7.5250  -13.9550 C   0  0  0  0  0  0  0  0  0  0  0  0
   -1.5110    6.7410  -14.6400 N   0  0  0  0  0  0  0  0  0  0  0  0
   -2.7160    7.3310  -14.6400 C   0  0  0  0  0  0  0  0  0  0  0  0
   -2.5960    8.4730  -13.9630 N   0  0  0  0  0  0  0  0  0  0  0  0
   -3.9440    6.9790  -15.1780 C   0  0  0  0  0  3  0  0  0  0  0  0
   -1.3340    8.6160  -13.5350 C   0  0  0  0  0  3  0  0  0  0  0  0
   -3.6800    9.2590  -13.8200 C   0  0  0  0  0  3  0  0  0  0  0  0
   -4.9140    8.9620  -14.3280 C   0  0  0  0  0  0  0  0  0  0  0  0
   -5.0600    7.7750  -15.0380 C   0  0  0  0  0  3  0  0  0  0  0  0
   -6.3100   10.0140  -14.1210 Cl  0  0  0  0  0  0  0  0  0  0  0  0
    3.1240   11.5430  -12.7650 S   0  0  0  0  0  0  0  0  0  0  0  0
    2.8860   11.0160  -11.3880 O   0  0  0  0  0  0  0  0  0  0  0  0
    4.2770   12.5050  -12.7120 O   0  0  0  0  0  0  0  0  0  0  0  0
    1.7380   12.4310  -13.2550 N   0  0  0  0  0  0  0  0  0  0  0  0
    1.6710   13.7390  -12.6300 C   0  0  0  0  0  2  0  0  0  0  0  0
    0.2230   14.1680  -12.6460 C   0  0  0  0  0  2  0  0  0  0  0  0
   -0.4390   13.7020  -13.7770 O   0  0  0  0  0  0  0  0  0  0  0  0
   -0.5860   12.3170  -13.7810 C   0  0  0  0  0  2  0  0  0  0  0  0
    0.5080   11.7450  -12.9020 C   0  0  0  0  0  2  0  0  0  0  0  0
  1  6  1  0  0  0  0
  1 19  1  0  0  0  0
  2  3  1  0  0  0  0
  2  1  1  0  0  0  0
  3  4  1  0  0  0  0
  4  5  1  0  0  0  0
  4  7  1  0  0  0  0
  5  6  1  0  0  0  0
  7  8  2  0  0  0  0
  9  7  1  0  0  0  0
  9 14  2  0  0  0  0
 10 11  2  0  0  0  0
 10  9  1  0  0  0  0
 11 12  1  0  0  0  0
 12 15  1  0  0  0  0
 12 14  1  0  0  0  0
 13 17  2  0  0  0  0
 13 11  1  0  0  0  0
 16 18  1  0  0  0  0
 16 15  2  0  0  0  0
 17 16  1  0  0  0  0
 19 21  2  0  0  0  0
 19 20  2  0  0  0  0
 22 27  1  0  0  0  0
 22 19  1  0  0  0  0
 22 23  1  0  0  0  0
 24 23  1  0  0  0  0
 25 24  1  0  0  0  0
 26 25  1  0  0  0  0
 26 27  1  0  0  0  0
M  END
>  <Pose>
1

>  <Score>
-7.487

$$$$
