/Users/jonathanwahrer/Desktop/Msc/3_Semester/Drug_Design_Praktikum/waehrer_HTS_screening/HTS_experiment/out/docking_results/vina_output/6q9y/1764_docked.pdbqt
 OpenBabel03222220233D

 34 37  0  0  1  0  0  0  0  0999 V2000
    1.8100   13.4430  -12.8020 N   0  0  0  0  0  0  0  0  0  0  0  0
    0.7940   13.9960  -12.0470 C   0  0  1  0  0  3  0  0  0  0  0  0
    1.4940   14.8620  -10.9900 C   0  0  0  0  0  2  0  0  0  0  0  0
    2.6610   15.4170  -11.7760 C   0  0  0  0  0  2  0  0  0  0  0  0
    2.9490   14.3560  -12.8110 C   0  0  0  0  0  2  0  0  0  0  0  0
    2.2290   11.8370  -12.8320 S   0  0  0  0  0  0  0  0  0  0  0  0
    2.9160   11.3830  -11.5450 O   0  0  0  0  0  0  0  0  0  0  0  0
    3.3080   11.6400  -13.8990 O   0  0  0  0  0  0  0  0  0  0  0  0
    0.9360   10.7360  -13.2040 C   0  0  0  0  0  0  0  0  0  0  0  0
   -0.3460   11.2570  -13.4450 C   0  0  0  0  0  3  0  0  0  0  0  0
   -1.4460   10.4850  -13.6870 C   0  0  0  0  0  0  0  0  0  0  0  0
   -1.2670    9.1140  -13.6900 C   0  0  0  0  0  0  0  0  0  0  0  0
   -2.7090   11.0050  -13.9250 O   0  0  0  0  0  0  0  0  0  0  0  0
   -0.0520    8.5410  -13.4650 C   0  0  0  0  0  3  0  0  0  0  0  0
   -2.4150    8.2910  -13.9480 N   0  0  0  0  0  0  0  0  0  0  0  0
    1.0350    9.3730  -13.2250 C   0  0  0  0  0  0  0  0  0  0  0  0
    2.5780    8.5680  -13.0490 Cl  0  0  0  0  0  0  0  0  0  0  0  0
   -3.6790    8.9040  -14.1890 C   0  0  0  0  0  0  0  0  0  0  0  0
   -2.2940    7.2480  -13.9540 H   0  0  0  0  0  0  0  0  0  0  0  0
   -4.7300    8.2740  -13.9730 O   0  0  0  0  0  0  0  0  0  0  0  0
   -3.6730   10.2970  -14.7000 C   0  0  0  0  0  2  0  0  0  0  0  0
   -0.0280   14.9090  -12.9400 C   0  0  0  0  0  0  0  0  0  0  0  0
   -0.2920   14.4650  -14.0650 O   0  0  0  0  0  0  0  0  0  0  0  0
   -0.4340   16.1670  -12.4600 N   0  0  0  0  0  0  0  0  0  0  0  0
   -0.1830   16.5160  -11.5130 H   0  0  0  0  0  0  0  0  0  0  0  0
   -1.2250   17.0410  -13.2920 C   0  0  0  0  0  2  0  0  0  0  0  0
   -2.6140   17.2790  -12.8390 C   0  0  0  0  0  2  0  0  0  0  0  0
   -2.8420   18.4560  -12.0800 N   0  0  0  0  0  0  0  0  0  0  0  0
   -2.8750   18.2840  -10.6640 C   0  0  0  0  0  2  0  0  0  0  0  0
   -2.1770   19.4740  -10.0350 C   0  0  0  0  0  2  0  0  0  0  0  0
   -2.7820   20.7460  -10.5930 C   0  0  0  0  0  2  0  0  0  0  0  0
   -4.2810   20.6150  -10.5510 C   0  0  0  0  0  2  0  0  0  0  0  0
   -4.8630   19.8170  -11.6580 C   0  0  0  0  0  2  0  0  0  0  0  0
   -3.8990   19.2420  -12.6260 C   0  0  0  0  0  2  0  0  0  0  0  0
  1  2  1  0  0  0  0
  2 22  1  6  0  0  0
  2  3  1  0  0  0  0
  4  3  1  0  0  0  0
  5  1  1  0  0  0  0
  5  4  1  0  0  0  0
  6  1  1  0  0  0  0
  6  7  2  0  0  0  0
  8  6  2  0  0  0  0
  9  6  1  0  0  0  0
 10  9  2  0  0  0  0
 11 10  1  0  0  0  0
 12 11  2  0  0  0  0
 12 14  1  0  0  0  0
 13 11  1  0  0  0  0
 14 16  2  0  0  0  0
 15 12  1  0  0  0  0
 16  9  1  0  0  0  0
 16 17  1  0  0  0  0
 18 20  2  0  0  0  0
 18 15  1  0  0  0  0
 19 15  1  0  0  0  0
 21 18  1  0  0  0  0
 21 13  1  0  0  0  0
 22 24  1  0  0  0  0
 23 22  2  0  0  0  0
 24 25  1  0  0  0  0
 26 27  1  0  0  0  0
 26 24  1  0  0  0  0
 27 28  1  0  0  0  0
 28 29  1  0  0  0  0
 29 30  1  0  0  0  0
 31 32  1  0  0  0  0
 31 30  1  0  0  0  0
 33 32  1  0  0  0  0
 34 28  1  0  0  0  0
 34 33  1  0  0  0  0
M  END
>  <Pose>
1

>  <Score>
-9.359

$$$$
