/Users/jonathanwahrer/Desktop/Msc/3_Semester/Drug_Design_Praktikum/waehrer_HTS_screening/HTS_experiment/out/docking_results/vina_output/6q9y/1789_docked.pdbqt
 OpenBabel03222220243D

 29 32  0  0  0  0  0  0  0  0999 V2000
    0.7200   15.6860  -12.3580 N   0  0  0  0  0  0  0  0  0  0  0  0
    1.9380   16.0680  -12.0510 N   0  0  0  0  0  0  0  0  0  0  0  0
    2.7020   14.9810  -12.1030 N   0  0  0  0  0  0  0  0  0  0  0  0
    1.9760   13.9000  -12.4440 C   0  0  0  0  0  0  0  0  0  0  0  0
    0.7320   14.3630  -12.6010 C   0  0  0  0  0  0  0  0  0  0  0  0
   -0.0200   13.2510  -12.9510 C   0  0  0  0  0  0  0  0  0  0  0  0
   -1.2490   13.2850  -13.1850 O   0  0  0  0  0  0  0  0  0  0  0  0
    0.7290   12.1390  -13.0110 N   0  0  0  0  0  0  0  0  0  0  0  0
    1.9730   12.5430  -12.6950 C   0  0  0  0  0  0  0  0  0  0  0  0
    2.9910   11.7900  -12.6360 O   0  0  0  0  0  0  0  0  0  0  0  0
    2.2580   17.0510  -11.8070 H   0  0  0  0  0  0  0  0  0  0  0  0
    3.7300   14.9980  -11.9000 H   0  0  0  0  0  0  0  0  0  0  0  0
    0.3390   10.8080  -13.3340 C   0  0  0  0  0  0  0  0  0  0  0  0
   -0.9810   10.4220  -13.4650 C   0  0  0  0  0  3  0  0  0  0  0  0
   -1.3500    9.1300  -13.7780 C   0  0  0  0  0  0  0  0  0  0  0  0
   -0.4000    8.1500  -13.9760 C   0  0  0  0  0  0  0  0  0  0  0  0
    0.9220    8.5200  -13.8480 C   0  0  0  0  0  3  0  0  0  0  0  0
    1.2820    9.8180  -13.5340 C   0  0  0  0  0  3  0  0  0  0  0  0
   -2.6800    8.7420  -13.9090 O   0  0  0  0  0  0  0  0  0  0  0  0
   -3.6200    9.7460  -14.2440 C   0  0  0  0  0  1  0  0  0  0  0  0
   -0.7830    6.8480  -14.2910 O   0  0  0  0  0  0  0  0  0  0  0  0
   -0.7550    5.7910  -13.3820 C   0  0  0  0  0  1  0  0  0  0  0  0
   -0.4090   16.5300  -12.4220 C   0  0  0  0  0  0  0  0  0  0  0  0
   -1.2120   16.5390  -13.5590 C   0  0  0  0  0  3  0  0  0  0  0  0
   -2.2990   17.3890  -13.5510 C   0  0  0  0  0  3  0  0  0  0  0  0
   -2.6280   18.2090  -12.5100 C   0  0  0  0  0  0  0  0  0  0  0  0
   -4.0310   19.2800  -12.5470 Cl  0  0  0  0  0  0  0  0  0  0  0  0
   -1.8310   18.1920  -11.3920 C   0  0  0  0  0  3  0  0  0  0  0  0
   -0.7420   17.3680  -11.3500 C   0  0  0  0  0  3  0  0  0  0  0  0
  1  2  1  0  0  0  0
  2 11  1  0  0  0  0
  3  2  1  0  0  0  0
  3 12  1  0  0  0  0
  4  3  1  0  0  0  0
  5  4  2  0  0  0  0
  5  1  1  0  0  0  0
  6  5  1  0  0  0  0
  7  6  2  0  0  0  0
  8  6  1  0  0  0  0
  8  9  1  0  0  0  0
  9 10  2  0  0  0  0
  9  4  1  0  0  0  0
 13  8  1  0  0  0  0
 14 13  1  0  0  0  0
 15 14  2  0  0  0  0
 16 17  2  0  0  0  0
 16 15  1  0  0  0  0
 17 18  1  0  0  0  0
 18 13  2  0  0  0  0
 19 15  1  0  0  0  0
 20 19  1  0  0  0  0
 21 16  1  0  0  0  0
 21 22  1  0  0  0  0
 23  1  1  0  0  0  0
 23 29  1  0  0  0  0
 24 25  1  0  0  0  0
 24 23  2  0  0  0  0
 25 26  2  0  0  0  0
 26 28  1  0  0  0  0
 27 26  1  0  0  0  0
 28 29  2  0  0  0  0
M  END
>  <Pose>
1

>  <Score>
-9.052

$$$$
