/Users/jonathanwahrer/Desktop/Msc/3_Semester/Drug_Design_Praktikum/waehrer_HTS_screening/HTS_experiment/out/docking_results/vina_output/6q9y/1801_docked.pdbqt
 OpenBabel03222220243D

 26 29  0  0  0  0  0  0  0  0999 V2000
   -4.6850    8.2850  -14.5200 Cl  0  0  0  0  0  0  0  0  0  0  0  0
   -3.1450    9.0560  -14.1420 C   0  0  0  0  0  0  0  0  0  0  0  0
   -2.0580    8.2930  -13.7520 C   0  0  0  0  0  3  0  0  0  0  0  0
   -0.8580    8.8790  -13.4570 C   0  0  0  0  0  0  0  0  0  0  0  0
   -0.7890   10.2470  -13.5640 C   0  0  0  0  0  0  0  0  0  0  0  0
   -1.8490   11.0260  -13.9480 C   0  0  0  0  0  3  0  0  0  0  0  0
   -3.0580   10.4200  -14.2450 C   0  0  0  0  0  3  0  0  0  0  0  0
    0.4910   10.9140  -13.2530 C   0  0  0  0  0  0  0  0  0  0  0  0
    0.8630   12.1460  -13.2600 N   0  0  0  0  0  0  0  0  0  0  0  0
    2.2350   12.3010  -12.8720 C   0  0  0  0  0  3  0  0  0  0  0  0
    2.7150   10.9120  -12.6020 C   0  0  0  0  0  3  0  0  0  0  0  0
    1.5650   10.0770  -12.8590 N   0  0  0  0  0  0  0  0  0  0  0  0
    1.4370    8.6510  -12.7630 C   0  0  0  0  0  0  0  0  0  0  0  0
    2.2980    7.6820  -12.4200 N   0  0  0  0  0  0  0  0  0  0  0  0
    1.7040    6.5030  -12.4830 N   0  0  0  0  0  0  0  0  0  0  0  0
    0.4440    6.7550  -12.8750 C   0  0  0  0  0  0  0  0  0  0  0  0
   -0.4260    5.8670  -13.0470 O   0  0  0  0  0  0  0  0  0  0  0  0
    0.2510    8.0890  -13.0570 N   0  0  0  0  0  0  0  0  0  0  0  0
    2.2720    5.1910  -12.1930 C   0  0  0  0  0  2  0  0  0  0  0  0
    3.6080    5.0950  -12.8270 C   0  0  0  0  0  0  0  0  0  0  0  0
    3.9750    3.9860  -13.3070 O   0  0  0  0  0  0  0  0  0  0  0  0
    4.4950    6.2000  -12.9200 N   0  0  0  0  0  0  0  0  0  0  0  0
    4.1760    7.1060  -12.5200 H   0  0  0  0  0  0  0  0  0  0  0  0
    5.7890    6.0580  -13.5480 C   0  0  0  0  0  3  0  0  0  0  0  0
    6.2190    7.3770  -14.1960 C   0  0  0  0  0  1  0  0  0  0  0  0
    6.7900    5.8010  -12.4300 C   0  0  0  0  0  1  0  0  0  0  0  0
  1  2  1  0  0  0  0
  2  3  1  0  0  0  0
  3  4  2  0  0  0  0
  4 18  1  0  0  0  0
  5  4  1  0  0  0  0
  5  8  1  0  0  0  0
  6  5  2  0  0  0  0
  7  2  2  0  0  0  0
  7  6  1  0  0  0  0
  8 12  1  0  0  0  0
  9  8  2  0  0  0  0
  9 10  1  0  0  0  0
 10 11  2  0  0  0  0
 12 13  1  0  0  0  0
 12 11  1  0  0  0  0
 13 14  2  0  0  0  0
 15 14  1  0  0  0  0
 15 19  1  0  0  0  0
 16 15  1  0  0  0  0
 17 16  2  0  0  0  0
 18 16  1  0  0  0  0
 18 13  1  0  0  0  0
 20 19  1  0  0  0  0
 21 20  2  0  0  0  0
 22 20  1  0  0  0  0
 22 23  1  0  0  0  0
 24 22  1  0  0  0  0
 24 26  1  0  0  0  0
 25 24  1  0  0  0  0
M  END
>  <Pose>
1

>  <Score>
-8.146

$$$$
