/Users/jonathanwahrer/Desktop/Msc/3_Semester/Drug_Design_Praktikum/waehrer_HTS_screening/HTS_experiment/out/docking_results/vina_output/6q9y/1802_docked.pdbqt
 OpenBabel03222220243D

 27 30  0  0  0  0  0  0  0  0999 V2000
    2.6270    4.8870  -12.1180 Cl  0  0  0  0  0  0  0  0  0  0  0  0
    1.3460    6.0210  -12.5530 C   0  0  0  0  0  0  0  0  0  0  0  0
    1.6720    7.3750  -12.6620 C   0  0  0  0  0  3  0  0  0  0  0  0
    0.7210    8.3150  -13.0070 C   0  0  0  0  0  0  0  0  0  0  0  0
   -0.5580    7.8470  -13.2330 C   0  0  0  0  0  0  0  0  0  0  0  0
   -0.9160    6.5430  -13.1380 C   0  0  0  0  0  3  0  0  0  0  0  0
    0.0580    5.5960  -12.7880 C   0  0  0  0  0  3  0  0  0  0  0  0
   -1.5660    8.8710  -13.6070 C   0  0  0  0  0  0  0  0  0  0  0  0
   -2.8320    8.7700  -13.8810 N   0  0  0  0  0  0  0  0  0  0  0  0
   -3.3890   10.0670  -14.1910 C   0  0  0  0  0  3  0  0  0  0  0  0
   -2.2600   11.0630  -14.0890 C   0  0  0  0  0  3  0  0  0  0  0  0
   -1.1500   10.2090  -13.6980 N   0  0  0  0  0  0  0  0  0  0  0  0
    0.1940   10.6130  -13.4460 C   0  0  0  0  0  0  0  0  0  0  0  0
    0.7950   11.8200  -13.4850 N   0  0  0  0  0  0  0  0  0  0  0  0
    2.0830   11.6750  -13.1790 N   0  0  0  0  0  0  0  0  0  0  0  0
    2.2470   10.3730  -12.9570 C   0  0  0  0  0  0  0  0  0  0  0  0
    3.3400    9.8260  -12.6390 O   0  0  0  0  0  0  0  0  0  0  0  0
    1.0840    9.6820  -13.1150 N   0  0  0  0  0  0  0  0  0  0  0  0
    3.0910   12.7380  -13.1210 C   0  0  0  0  0  2  0  0  0  0  0  0
    2.5980   13.6090  -11.9240 C   0  0  0  0  0  0  0  0  0  0  0  0
    3.1500   13.1600  -10.8590 O   0  0  0  0  0  0  0  0  0  0  0  0
    1.7390   14.6190  -12.1190 N   0  0  0  0  0  0  0  0  0  0  0  0
    1.8360   14.9570  -10.8080 H   0  0  0  0  0  0  0  0  0  0  0  0
    0.8550   15.6560  -12.3190 C   0  0  0  0  0  2  0  0  0  0  0  0
   -0.3230   15.2600  -13.2170 C   0  0  0  0  0  2  0  0  0  0  0  0
   -0.8280   16.3450  -13.8930 O   0  0  0  0  0  0  0  0  0  0  0  0
   -1.7200   17.1080  -13.1970 C   0  0  0  0  0  1  0  0  0  0  0  0
  2  1  1  0  0  0  0
  3  2  1  0  0  0  0
  4  3  2  0  0  0  0
  5  6  2  0  0  0  0
  5  4  1  0  0  0  0
  6  7  1  0  0  0  0
  7  2  2  0  0  0  0
  8  5  1  0  0  0  0
  9  8  2  0  0  0  0
 10 11  2  0  0  0  0
 10  9  1  0  0  0  0
 11 12  1  0  0  0  0
 12  8  1  0  0  0  0
 12 13  1  0  0  0  0
 13 18  1  0  0  0  0
 14 13  2  0  0  0  0
 14 15  1  0  0  0  0
 15 19  1  0  0  0  0
 15 16  1  0  0  0  0
 16 17  2  0  0  0  0
 18  4  1  0  0  0  0
 18 16  1  0  0  0  0
 19 20  1  0  0  0  0
 20 21  2  0  0  0  0
 22 20  1  0  0  0  0
 22 23  1  0  0  0  0
 24 22  1  0  0  0  0
 25 24  1  0  0  0  0
 26 25  1  0  0  0  0
 26 27  1  0  0  0  0
M  END
>  <Pose>
1

>  <Score>
-8.177

$$$$
