/Users/jonathanwahrer/Desktop/Msc/3_Semester/Drug_Design_Praktikum/waehrer_HTS_screening/HTS_experiment/out/docking_results/vina_output/6q9y/1806_docked.pdbqt
 OpenBabel03222220243D

 32 35  0  0  0  0  0  0  0  0999 V2000
    1.9530    6.7860  -12.4290 N   0  0  0  0  0  0  0  0  0  0  0  0
    2.3780    7.8280  -13.3400 C   0  0  0  0  0  2  0  0  0  0  0  0
    1.1410    8.6810  -13.6640 C   0  0  0  0  0  2  0  0  0  0  0  0
   -0.0520    8.1150  -13.1350 N   0  0  0  0  0  0  0  0  0  0  0  0
   -0.0760    8.0080  -11.6780 C   0  0  0  0  0  2  0  0  0  0  0  0
    1.1250    7.1740  -11.3030 C   0  0  0  0  0  2  0  0  0  0  0  0
    2.3290    5.4230  -12.5700 C   0  0  0  0  0  3  0  0  0  0  0  0
    3.5360    4.9570  -12.7890 C   0  0  0  0  0  0  0  0  0  0  0  0
    4.6700    5.7930  -12.9200 N   0  0  0  0  0  0  0  0  0  0  0  0
    3.7360    3.5300  -12.9060 N   0  0  0  0  0  0  0  0  0  0  0  0
    5.9820    5.2370  -13.1600 C   0  0  0  0  0  0  0  0  0  0  0  0
    4.5700    6.8200  -12.8420 H   0  0  0  0  0  0  0  0  0  0  0  0
    6.1940    3.8870  -13.2750 C   0  0  0  0  0  0  0  0  0  0  0  0
    7.0540    6.0830  -13.2810 C   0  0  0  0  0  3  0  0  0  0  0  0
    7.4620    3.3900  -13.5060 C   0  0  0  0  0  3  0  0  0  0  0  0
    5.0340    3.0160  -13.1430 C   0  0  0  0  0  0  0  0  0  0  0  0
    8.5240    4.2320  -13.6250 C   0  0  0  0  0  0  0  0  0  0  0  0
   10.1640    3.6570  -13.9200 Cl  0  0  0  0  0  0  0  0  0  0  0  0
    8.3260    5.5890  -13.5120 C   0  0  0  0  0  3  0  0  0  0  0  0
    5.2360    1.7580  -13.2510 O   0  0  0  0  0  0  0  0  0  0  0  0
    2.9260    2.8860  -12.8160 H   0  0  0  0  0  0  0  0  0  0  0  0
   -1.1940    7.6310  -13.8220 C   0  0  0  0  0  0  0  0  0  0  0  0
   -1.1360    6.3590  -14.3650 N   0  0  0  0  0  0  0  0  0  0  0  0
   -2.1340    5.7950  -15.0440 C   0  0  0  0  0  3  0  0  0  0  0  0
   -3.2850    6.5130  -15.2150 C   0  0  0  0  0  3  0  0  0  0  0  0
   -3.3780    7.7710  -14.6920 C   0  0  0  0  0  3  0  0  0  0  0  0
   -2.3270    8.3740  -13.9720 C   0  0  0  0  0  0  0  0  0  0  0  0
   -2.4700    9.6820  -13.4110 C   0  0  0  0  0  0  0  0  0  0  0  0
   -3.0800    9.9590  -12.3810 O   0  0  0  0  0  0  0  0  0  0  0  0
   -1.8640   10.7780  -14.0850 N   0  0  0  0  0  0  0  0  0  0  0  0
   -0.8240   10.8690  -14.1280 H   0  0  0  0  0  0  0  0  0  0  0  0
   -2.4040   11.5330  -14.5620 H   0  0  0  0  0  0  0  0  0  0  0  0
  1  6  1  0  0  0  0
  2  1  1  0  0  0  0
  3  2  1  0  0  0  0
  3  4  1  0  0  0  0
  4  5  1  0  0  0  0
  5  6  1  0  0  0  0
  7  1  1  0  0  0  0
  8  7  2  0  0  0  0
  9 12  1  0  0  0  0
  9  8  1  0  0  0  0
 10 21  1  0  0  0  0
 10  8  1  0  0  0  0
 11  9  1  0  0  0  0
 13 11  1  0  0  0  0
 13 16  1  0  0  0  0
 14 11  2  0  0  0  0
 15 13  2  0  0  0  0
 16 10  1  0  0  0  0
 17 19  2  0  0  0  0
 17 15  1  0  0  0  0
 18 17  1  0  0  0  0
 19 14  1  0  0  0  0
 20 16  2  0  0  0  0
 22  4  1  0  0  0  0
 23 22  2  0  0  0  0
 24 23  1  0  0  0  0
 25 24  2  0  0  0  0
 25 26  1  0  0  0  0
 26 27  2  0  0  0  0
 27 22  1  0  0  0  0
 27 28  1  0  0  0  0
 28 29  2  0  0  0  0
 30 28  1  0  0  0  0
 31 30  1  0  0  0  0
 32 30  1  0  0  0  0
M  END
>  <Pose>
1

>  <Score>
-8.703

$$$$
