/Users/jonathanwahrer/Desktop/Msc/3_Semester/Drug_Design_Praktikum/waehrer_HTS_screening/HTS_experiment/out/docking_results/vina_output/6q9y/1810_docked.pdbqt
 OpenBabel03222220253D

 32 35  0  0  1  0  0  0  0  0999 V2000
    1.0360    9.4970  -12.9880 N   0  0  0  0  0  0  0  0  0  0  0  0
    1.2010    9.9380  -14.3510 C   0  0  0  0  0  2  0  0  0  0  0  0
    1.7390   11.3500  -14.3160 C   0  0  0  0  0  2  0  0  0  0  0  0
    2.1650   11.6670  -12.9770 N   0  0  0  0  0  0  0  0  0  0  0  0
    2.8920   10.7040  -12.1570 C   0  0  0  0  0  2  0  0  0  0  0  0
    2.3560    9.2960  -12.4270 C   0  0  0  0  0  2  0  0  0  0  0  0
    1.8700   12.9280  -12.4300 C   0  0  0  0  0  0  0  0  0  0  0  0
    2.2910   13.2080  -11.2540 O   0  0  0  0  0  0  0  0  0  0  0  0
    1.0770   13.9220  -13.2030 C   0  0  1  0  0  3  0  0  0  0  0  0
   -0.0080   14.5630  -12.3860 C   0  0  0  0  0  2  0  0  0  0  0  0
    0.4860   15.8960  -12.0580 N   0  0  0  0  0  0  0  0  0  0  0  0
    1.8010   16.0540  -12.5570 C   0  0  0  0  0  0  0  0  0  0  0  0
    2.6360   16.8800  -12.1140 O   0  0  0  0  0  0  0  0  0  0  0  0
    1.9340   15.0730  -13.6540 C   0  0  0  0  0  2  0  0  0  0  0  0
   -0.2640   16.8920  -11.3270 C   0  0  0  0  0  2  0  0  0  0  0  0
   -1.4330   17.3780  -12.0980 C   0  0  0  0  0  0  0  0  0  0  0  0
   -2.2410   18.3640  -11.5520 C   0  0  0  0  0  0  0  0  0  0  0  0
   -3.3500   18.8660  -12.2120 C   0  0  0  0  0  3  0  0  0  0  0  0
   -1.8310   18.9830   -9.9750 Cl  0  0  0  0  0  0  0  0  0  0  0  0
   -3.6330   18.3430  -13.4570 C   0  0  0  0  0  3  0  0  0  0  0  0
   -2.8470   17.3590  -14.0320 C   0  0  0  0  0  3  0  0  0  0  0  0
   -1.7360   16.8720  -13.3440 C   0  0  0  0  0  3  0  0  0  0  0  0
    0.0730    8.0760  -12.9030 S   0  0  0  0  0  0  0  0  0  0  0  0
   -0.0020    7.5410  -11.5010 O   0  0  0  0  0  0  0  0  0  0  0  0
    0.7900    7.0150  -13.7110 O   0  0  0  0  0  0  0  0  0  0  0  0
   -1.5050    8.3280  -13.5840 C   0  0  0  0  0  0  0  0  0  0  0  0
   -2.2890    9.4580  -13.6480 C   0  0  0  0  0  0  0  0  0  0  0  0
   -3.4520    9.1180  -14.2840 N   0  0  0  0  0  0  0  0  0  0  0  0
   -1.9140   10.7850  -13.1250 C   0  0  0  0  0  1  0  0  0  0  0  0
   -3.3820    7.8760  -14.5840 O   0  0  0  0  0  0  0  0  0  0  0  0
   -2.2500    7.3390  -14.1980 C   0  0  0  0  0  0  0  0  0  0  0  0
   -1.9030    5.9180  -14.4190 C   0  0  0  0  0  1  0  0  0  0  0  0
  1 23  1  0  0  0  0
  1  6  1  0  0  0  0
  2  3  1  0  0  0  0
  2  1  1  0  0  0  0
  3  4  1  0  0  0  0
  4  7  1  0  0  0  0
  4  5  1  0  0  0  0
  6  5  1  0  0  0  0
  7  8  2  0  0  0  0
  9  7  1  1  0  0  0
  9 10  1  0  0  0  0
 10 11  1  0  0  0  0
 11 15  1  0  0  0  0
 12 13  2  0  0  0  0
 12 11  1  0  0  0  0
 14  9  1  0  0  0  0
 14 12  1  0  0  0  0
 16 17  1  0  0  0  0
 16 15  1  0  0  0  0
 17 19  1  0  0  0  0
 18 17  2  0  0  0  0
 20 18  1  0  0  0  0
 21 20  2  0  0  0  0
 21 22  1  0  0  0  0
 22 16  2  0  0  0  0
 23 24  2  0  0  0  0
 25 23  2  0  0  0  0
 26 23  1  0  0  0  0
 27 26  1  0  0  0  0
 27 29  1  0  0  0  0
 28 27  2  0  0  0  0
 30 28  1  0  0  0  0
 30 31  1  0  0  0  0
 31 26  2  0  0  0  0
 32 31  1  0  0  0  0
M  END
>  <Pose>
1

>  <Score>
-7.752

$$$$
