/Users/jonathanwahrer/Desktop/Msc/3_Semester/Drug_Design_Praktikum/waehrer_HTS_screening/HTS_experiment/out/docking_results/vina_output/6q9y/1816_docked.pdbqt
 OpenBabel03222220253D

 36 39  0  0  0  0  0  0  0  0999 V2000
   -2.8060    9.5030  -13.9970 C   0  0  0  0  0  0  0  0  0  0  0  0
   -2.4440    8.8570  -15.0400 O   0  0  0  0  0  0  0  0  0  0  0  0
   -4.1230    9.3790  -13.5910 N   0  0  0  0  0  0  0  0  0  0  0  0
   -5.0850    8.5720  -14.2760 C   0  0  0  0  0  2  0  0  0  0  0  0
   -6.2270    9.4850  -14.7260 C   0  0  0  0  0  2  0  0  0  0  0  0
   -6.7510   10.1800  -13.5990 N   0  0  0  0  0  0  0  0  0  0  0  0
   -6.0970    9.9180  -12.2990 C   0  0  0  0  0  2  0  0  0  0  0  0
   -4.5980   10.0790  -12.4190 C   0  0  0  0  0  2  0  0  0  0  0  0
   -7.8260   11.0930  -13.6220 C   0  0  0  0  0  0  0  0  0  0  0  0
   -8.1200   11.5920  -12.4260 O   0  0  0  0  0  0  0  0  0  0  0  0
   -1.7750   10.3320  -13.3140 C   0  0  0  0  0  2  0  0  0  0  0  0
   -0.4320    9.7180  -13.4210 C   0  0  0  0  0  0  0  0  0  0  0  0
    0.6260   10.4430  -13.9660 C   0  0  0  0  0  0  0  0  0  0  0  0
    1.8350    9.9510  -14.0840 O   0  0  0  0  0  0  0  0  0  0  0  0
    0.3590   11.6300  -14.3520 O   0  0  0  0  0  0  0  0  0  0  0  0
    2.1490    8.7370  -13.7000 C   0  0  0  0  0  0  0  0  0  0  0  0
    1.1780    7.9350  -13.1470 C   0  0  0  0  0  0  0  0  0  0  0  0
    3.4510    8.2390  -13.8390 C   0  0  0  0  0  3  0  0  0  0  0  0
    1.5220    6.6660  -12.7480 C   0  0  0  0  0  3  0  0  0  0  0  0
   -0.1190    8.4410  -13.0110 C   0  0  0  0  0  0  0  0  0  0  0  0
    2.8160    6.1740  -12.8890 C   0  0  0  0  0  0  0  0  0  0  0  0
    3.2570    4.5590  -12.3850 Cl  0  0  0  0  0  0  0  0  0  0  0  0
    3.7950    6.9670  -13.4410 C   0  0  0  0  0  0  0  0  0  0  0  0
   -1.1410    7.5840  -12.4190 C   0  0  0  0  0  1  0  0  0  0  0  0
    5.1060    6.4750  -13.5860 O   0  0  0  0  0  0  0  0  0  0  0  0
    6.1990    7.3270  -13.8240 C   0  0  0  0  0  1  0  0  0  0  0  0
   -8.6500   11.5740  -14.6900 C   0  0  0  0  0  0  0  0  0  0  0  0
   -9.3440   12.8010  -14.5340 C   0  0  0  0  0  3  0  0  0  0  0  0
  -10.1460   13.2920  -15.5290 C   0  0  0  0  0  0  0  0  0  0  0  0
  -10.7510   14.3840  -15.3650 O   0  0  0  0  0  0  0  0  0  0  0  0
  -10.3240   12.6570  -16.6950 N   0  0  0  0  0  0  0  0  0  0  0  0
   -9.6720   11.5030  -16.8420 C   0  0  0  0  0  0  0  0  0  0  0  0
  -11.1760   13.1910  -17.7320 C   0  0  0  0  0  1  0  0  0  0  0  0
   -9.8080   10.8580  -17.9330 O   0  0  0  0  0  0  0  0  0  0  0  0
   -8.8560   10.9800  -15.8600 N   0  0  0  0  0  0  0  0  0  0  0  0
   -8.3900   10.0770  -16.0760 H   0  0  0  0  0  0  0  0  0  0  0  0
  1  3  1  0  0  0  0
  1 11  1  0  0  0  0
  2  1  2  0  0  0  0
  3  8  1  0  0  0  0
  4  3  1  0  0  0  0
  5  4  1  0  0  0  0
  5  6  1  0  0  0  0
  6  7  1  0  0  0  0
  8  7  1  0  0  0  0
  9  6  1  0  0  0  0
  9 10  2  0  0  0  0
 12 11  1  0  0  0  0
 12 20  2  0  0  0  0
 13 12  1  0  0  0  0
 14 13  1  0  0  0  0
 14 16  1  0  0  0  0
 15 13  2  0  0  0  0
 16 17  1  0  0  0  0
 17 20  1  0  0  0  0
 17 19  2  0  0  0  0
 18 16  2  0  0  0  0
 18 23  1  0  0  0  0
 20 24  1  0  0  0  0
 21 19  1  0  0  0  0
 21 22  1  0  0  0  0
 23 21  2  0  0  0  0
 25 23  1  0  0  0  0
 26 25  1  0  0  0  0
 27 28  2  0  0  0  0
 27  9  1  0  0  0  0
 29 30  2  0  0  0  0
 29 28  1  0  0  0  0
 31 29  1  0  0  0  0
 32 31  1  0  0  0  0
 32 35  1  0  0  0  0
 33 31  1  0  0  0  0
 34 32  2  0  0  0  0
 35 27  1  0  0  0  0
 36 35  1  0  0  0  0
M  END
>  <Pose>
1

>  <Score>
-7.958

$$$$
