/Users/jonathanwahrer/Desktop/Msc/3_Semester/Drug_Design_Praktikum/waehrer_HTS_screening/HTS_experiment/out/docking_results/vina_output/6q9y/1825_docked.pdbqt
 OpenBabel03222220263D

 29 32  0  0  1  0  0  0  0  0999 V2000
    0.9810   13.6750  -12.7550 N   0  0  0  0  0  0  0  0  0  0  0  0
    1.9610   12.7300  -12.8710 C   0  0  1  0  0  3  0  0  0  0  0  0
    1.3980   11.5470  -13.1700 N   0  0  0  0  0  0  0  0  0  0  0  0
    0.0680   11.6730  -13.2600 C   0  0  0  0  0  0  0  0  0  0  0  0
   -0.1630   13.0310  -12.9920 C   0  0  0  0  0  3  0  0  0  0  0  0
    2.4540   10.5410  -13.2810 C   0  0  0  0  0  2  0  0  0  0  0  0
    3.6690   11.1660  -12.6210 C   0  0  0  0  0  2  0  0  0  0  0  0
    3.4390   12.6270  -12.7820 C   0  0  0  0  0  2  0  0  0  0  0  0
    1.2120   15.0860  -12.4140 C   0  0  0  0  0  2  0  0  0  0  0  0
    0.0420   15.8980  -12.9290 C   0  0  0  0  0  0  0  0  0  0  0  0
   -0.7800   16.6140  -12.0740 N   0  0  0  0  0  0  0  0  0  0  0  0
   -0.5400   16.5660  -11.0370 H   0  0  0  0  0  0  0  0  0  0  0  0
   -0.1150   15.8660  -14.1540 O   0  0  0  0  0  0  0  0  0  0  0  0
   -1.8970   17.3880  -12.4460 C   0  0  0  0  0  0  0  0  0  0  0  0
   -2.3100   18.4220  -11.5780 C   0  0  0  0  0  0  0  0  0  0  0  0
   -3.3960   19.2140  -11.8760 C   0  0  0  0  0  0  0  0  0  0  0  0
   -1.5710   18.6600  -10.3260 C   0  0  0  0  0  1  0  0  0  0  0  0
   -3.9170   20.5030  -10.8120 Cl  0  0  0  0  0  0  0  0  0  0  0  0
   -4.1250   19.0350  -13.0290 C   0  0  0  0  0  3  0  0  0  0  0  0
   -3.7480   18.0370  -13.8910 C   0  0  0  0  0  3  0  0  0  0  0  0
   -2.6360   17.2290  -13.5820 C   0  0  0  0  0  3  0  0  0  0  0  0
   -0.9900   10.7190  -13.5470 C   0  0  0  0  0  0  0  0  0  0  0  0
   -2.2270   11.0970  -13.9900 C   0  0  0  0  0  3  0  0  0  0  0  0
   -3.2370   10.2000  -14.2870 C   0  0  0  0  0  3  0  0  0  0  0  0
   -3.0360    8.8350  -14.1420 C   0  0  0  0  0  0  0  0  0  0  0  0
   -1.7940    8.4530  -13.6980 C   0  0  0  0  0  3  0  0  0  0  0  0
   -0.7860    9.3490  -13.4020 C   0  0  0  0  0  3  0  0  0  0  0  0
   -4.0230    7.9070  -14.4290 O   0  0  0  0  0  0  0  0  0  0  0  0
   -4.5000    7.6740  -15.7410 C   0  0  0  0  0  1  0  0  0  0  0  0
  1  9  1  0  0  0  0
  2  8  1  6  0  0  0
  2  1  1  0  0  0  0
  3  2  1  0  0  0  0
  4  3  1  0  0  0  0
  4  5  2  0  0  0  0
  5  1  1  0  0  0  0
  6  3  1  0  0  0  0
  6  7  1  0  0  0  0
  8  7  1  0  0  0  0
 10  9  1  0  0  0  0
 10 11  1  0  0  0  0
 11 12  1  0  0  0  0
 13 10  2  0  0  0  0
 14 11  1  0  0  0  0
 14 15  1  0  0  0  0
 15 17  1  0  0  0  0
 16 15  2  0  0  0  0
 16 18  1  0  0  0  0
 19 16  1  0  0  0  0
 20 21  1  0  0  0  0
 20 19  2  0  0  0  0
 21 14  2  0  0  0  0
 22 27  1  0  0  0  0
 22  4  1  0  0  0  0
 23 22  2  0  0  0  0
 24 25  2  0  0  0  0
 24 23  1  0  0  0  0
 25 26  1  0  0  0  0
 26 27  2  0  0  0  0
 28 25  1  0  0  0  0
 29 28  1  0  0  0  0
M  END
>  <Pose>
1

>  <Score>
-11.171

$$$$
