/Users/jonathanwahrer/Desktop/Msc/3_Semester/Drug_Design_Praktikum/waehrer_HTS_screening/HTS_experiment/out/docking_results/vina_output/6q9y/1850_docked.pdbqt
 OpenBabel03222220273D

 24 27  0  0  0  0  0  0  0  0999 V2000
    3.3600   13.9660  -11.7640 Cl  0  0  0  0  0  0  0  0  0  0  0  0
    1.8330   13.3860  -12.4130 C   0  0  0  0  0  0  0  0  0  0  0  0
    1.7260   12.1030  -12.9110 C   0  0  0  0  0  0  0  0  0  0  0  0
    0.5390   11.6510  -13.4160 C   0  0  0  0  0  0  0  0  0  0  0  0
   -0.5400   12.5060  -13.4150 C   0  0  0  0  0  3  0  0  0  0  0  0
   -0.4550   13.7900  -12.9240 C   0  0  0  0  0  3  0  0  0  0  0  0
    0.7480   14.2370  -12.4160 C   0  0  0  0  0  3  0  0  0  0  0  0
    0.3450   10.2890  -13.9660 C   0  0  0  0  0  2  0  0  0  0  0  0
    1.5430    9.5380  -13.6800 N   0  0  0  0  0  0  0  0  0  0  0  0
    2.8010   10.1940  -13.9500 C   0  0  0  0  0  2  0  0  0  0  0  0
    2.9570   11.2630  -12.8630 C   0  0  0  0  0  2  0  0  0  0  0  0
    1.5170    8.2240  -13.1570 C   0  0  0  0  0  0  0  0  0  0  0  0
    2.6000    7.6240  -12.9280 O   0  0  0  0  0  0  0  0  0  0  0  0
    0.2640    7.4920  -12.8560 C   0  0  0  0  0  2  0  0  0  0  0  0
   -0.3000    6.9210  -13.9950 O   0  0  0  0  0  0  0  0  0  0  0  0
   -1.6200    7.1030  -14.3860 C   0  0  0  0  0  0  0  0  0  0  0  0
   -2.2740    8.2140  -13.9970 N   0  0  0  0  0  0  0  0  0  0  0  0
   -3.5390    8.4470  -14.3380 N   0  0  0  0  0  0  0  0  0  0  0  0
   -4.2460    7.5940  -15.0910 C   0  0  0  0  0  0  0  0  0  0  0  0
   -4.3500    9.4810  -14.0510 C   0  0  0  0  0  3  0  0  0  0  0  0
   -5.4860    8.0890  -15.2730 N   0  0  0  0  0  0  0  0  0  0  0  0
   -3.6030    6.4360  -15.5120 C   0  0  0  0  0  3  0  0  0  0  0  0
   -5.5330    9.2340  -14.6360 N   0  0  0  0  0  0  0  0  0  0  0  0
   -2.2970    6.1940  -15.1600 C   0  0  0  0  0  3  0  0  0  0  0  0
  2  1  1  0  0  0  0
  3 11  1  0  0  0  0
  3  2  2  0  0  0  0
  4  5  2  0  0  0  0
  4  3  1  0  0  0  0
  5  6  1  0  0  0  0
  6  7  2  0  0  0  0
  7  2  1  0  0  0  0
  8  9  1  0  0  0  0
  8  4  1  0  0  0  0
  9 12  1  0  0  0  0
 10  9  1  0  0  0  0
 10 11  1  0  0  0  0
 12 13  2  0  0  0  0
 12 14  1  0  0  0  0
 15 14  1  0  0  0  0
 16 17  2  0  0  0  0
 16 15  1  0  0  0  0
 18 20  1  0  0  0  0
 18 17  1  0  0  0  0
 19 18  1  0  0  0  0
 21 19  2  0  0  0  0
 21 23  1  0  0  0  0
 22 24  2  0  0  0  0
 22 19  1  0  0  0  0
 23 20  2  0  0  0  0
 24 16  1  0  0  0  0
M  END
>  <Pose>
1

>  <Score>
-9.123

$$$$
