/Users/jonathanwahrer/Desktop/Msc/3_Semester/Drug_Design_Praktikum/waehrer_HTS_screening/HTS_experiment/out/docking_results/vina_output/6q9y/1852_docked.pdbqt
 OpenBabel03222220273D

 26 29  0  0  1  0  0  0  0  0999 V2000
    2.3010    7.8760  -12.6410 N   0  0  0  0  0  0  0  0  0  0  0  0
    1.8810    9.2230  -12.4170 C   0  0  0  0  0  2  0  0  0  0  0  0
    2.0940    9.9910  -13.7100 C   0  0  1  0  0  3  0  0  0  0  0  0
    1.9680    8.8920  -14.7450 C   0  0  0  0  0  2  0  0  0  0  0  0
    2.6580    7.7320  -14.0160 C   0  0  0  0  0  2  0  0  0  0  0  0
    1.1320    6.7230  -12.1220 S   0  0  0  0  0  0  0  0  0  0  0  0
    0.7130    7.0140  -10.7210 O   0  0  0  0  0  0  0  0  0  0  0  0
    1.7850    5.3660  -12.1610 O   0  0  0  0  0  0  0  0  0  0  0  0
   -0.2680    6.7050  -13.1680 C   0  0  0  0  0  0  0  0  0  0  0  0
   -1.1090    7.7980  -13.2300 C   0  0  0  0  0  3  0  0  0  0  0  0
   -2.2300    7.8340  -14.0410 C   0  0  0  0  0  0  0  0  0  0  0  0
   -2.5420    6.7430  -14.8310 C   0  0  0  0  0  0  0  0  0  0  0  0
   -3.0750    8.9180  -14.1110 O   0  0  0  0  0  0  0  0  0  0  0  0
   -1.7020    5.6610  -14.7650 C   0  0  0  0  0  3  0  0  0  0  0  0
   -3.6720    6.8220  -15.6290 O   0  0  0  0  0  0  0  0  0  0  0  0
   -0.5850    5.6220  -13.9590 C   0  0  0  0  0  3  0  0  0  0  0  0
   -4.7740    7.6650  -15.3400 C   0  0  0  0  0  2  0  0  0  0  0  0
   -4.3840    8.9160  -14.5980 C   0  0  0  0  0  2  0  0  0  0  0  0
    0.9990   10.8770  -13.8680 O   0  0  0  0  0  0  0  0  0  0  0  0
    0.9950   12.1470  -13.3150 C   0  0  0  0  0  0  0  0  0  0  0  0
   -0.1860   12.8270  -13.3910 N   0  0  0  0  0  0  0  0  0  0  0  0
   -0.2200   14.0610  -12.8630 C   0  0  0  0  0  3  0  0  0  0  0  0
    0.8790   14.6420  -12.2620 C   0  0  0  0  0  0  0  0  0  0  0  0
    2.0480   13.9070  -12.2140 C   0  0  0  0  0  2  0  0  0  0  0  0
    0.8200   16.2540  -11.5780 Cl  0  0  0  0  0  0  0  0  0  0  0  0
    2.0810   12.6660  -12.7450 N   0  0  0  0  0  0  0  0  0  0  0  0
  1  2  1  0  0  0  0
  1  6  1  0  0  0  0
  3 19  1  6  0  0  0
  3  2  1  0  0  0  0
  4  5  1  0  0  0  0
  4  3  1  0  0  0  0
  5  1  1  0  0  0  0
  6  7  2  0  0  0  0
  8  6  2  0  0  0  0
  9  6  1  0  0  0  0
 10  9  1  0  0  0  0
 11 10  2  0  0  0  0
 12 14  2  0  0  0  0
 12 11  1  0  0  0  0
 13 11  1  0  0  0  0
 14 16  1  0  0  0  0
 15 17  1  0  0  0  0
 15 12  1  0  0  0  0
 16  9  2  0  0  0  0
 17 18  1  0  0  0  0
 18 13  1  0  0  0  0
 19 20  1  0  0  0  0
 20 26  2  0  0  0  0
 21 20  2  0  0  0  0
 21 22  1  0  0  0  0
 22 23  2  0  0  0  0
 23 24  1  0  0  0  0
 23 25  1  0  0  0  0
 26 24  1  0  0  0  0
M  END
>  <Pose>
1

>  <Score>
-8.820

$$$$
