/Users/jonathanwahrer/Desktop/Msc/3_Semester/Drug_Design_Praktikum/waehrer_HTS_screening/HTS_experiment/out/docking_results/vina_output/6q9y/1856_docked.pdbqt
 OpenBabel03222220273D

 31 34  0  0  0  0  0  0  0  0999 V2000
   -1.6930   10.3380  -13.2770 C   0  0  0  0  0  0  0  0  0  0  0  0
   -0.6690    9.5890  -13.7130 N   0  0  0  0  0  4  0  0  0  0  0  0
    0.5810   10.0720  -13.9410 C   0  0  0  0  0  0  0  0  0  0  0  0
    0.7370   11.4000  -13.6940 N   0  0  0  0  0  0  0  0  0  0  0  0
   -0.2490   12.1990  -13.2580 C   0  0  0  0  0  0  0  0  0  0  0  0
   -1.4410   11.6520  -13.0590 N   0  0  0  0  0  2  0  0  0  0  0  0
   -2.9820    9.7850  -13.0540 N   0  0  0  0  0  0  0  0  0  0  0  0
   -3.1580    9.1330  -12.2650 H   0  0  0  0  0  0  0  0  0  0  0  0
   -4.0570   10.0980  -13.8860 N   0  0  0  0  0  0  0  0  0  0  0  0
   -5.2670    9.8340  -13.4430 C   0  0  0  0  0  3  0  0  0  0  0  0
   -6.4180   10.1440  -14.2780 C   0  0  0  0  0  0  0  0  0  0  0  0
   -7.2330   11.2380  -13.9480 C   0  0  0  0  0  3  0  0  0  0  0  0
   -8.3150   11.5440  -14.7190 C   0  0  0  0  0  0  0  0  0  0  0  0
   -9.4270   13.0290  -14.2750 Br  0  0  0  0  0  0  0  0  0  0  0  0
   -8.6310   10.7950  -15.8300 C   0  0  0  0  0  3  0  0  0  0  0  0
   -7.8480    9.7220  -16.1720 C   0  0  0  0  0  3  0  0  0  0  0  0
   -6.7320    9.4010  -15.3830 C   0  0  0  0  0  0  0  0  0  0  0  0
   -5.9650    8.3140  -15.7540 O   0  0  0  0  0  0  0  0  0  0  0  0
   -5.2040    7.9460  -15.2220 H   0  0  0  0  0  0  0  0  0  0  0  0
    1.6350    9.2580  -14.3980 N   0  0  0  0  0  0  0  0  0  0  0  0
    2.5860    9.7600  -15.3430 C   0  0  0  0  0  2  0  0  0  0  0  0
    3.9670    9.5330  -14.7510 C   0  0  0  0  0  2  0  0  0  0  0  0
    4.0910    8.1530  -14.5290 O   0  0  0  0  0  0  0  0  0  0  0  0
    3.2430    7.7540  -13.4960 C   0  0  0  0  0  2  0  0  0  0  0  0
    1.7810    7.9120  -13.9320 C   0  0  0  0  0  2  0  0  0  0  0  0
   -0.0150   13.5740  -13.0220 N   0  0  0  0  0  0  0  0  0  0  0  0
   -0.7160   14.6290  -13.7240 C   0  0  0  0  0  2  0  0  0  0  0  0
   -0.8340   15.8460  -12.8320 C   0  0  0  0  0  2  0  0  0  0  0  0
    0.3680   16.3110  -12.3710 O   0  0  0  0  0  0  0  0  0  0  0  0
    1.4120   15.4060  -12.5170 C   0  0  0  0  0  2  0  0  0  0  0  0
    0.9670   14.0290  -12.0330 C   0  0  0  0  0  2  0  0  0  0  0  0
  1  6  1  0  0  0  0
  1  7  1  0  0  0  0
  2  1  2  0  0  0  0
  3  2  2  0  0  0  0
  3  4  1  0  0  0  0
  4  5  2  0  0  0  0
  5  6  1  0  0  0  0
  5 26  1  0  0  0  0
  7  8  1  0  0  0  0
  9 10  2  0  0  0  0
  9  7  1  0  0  0  0
 11 12  1  0  0  0  0
 11 10  1  0  0  0  0
 13 14  1  0  0  0  0
 13 12  2  0  0  0  0
 15 13  1  0  0  0  0
 16 15  2  0  0  0  0
 16 17  1  0  0  0  0
 17 11  2  0  0  0  0
 18 17  1  0  0  0  0
 18 19  1  0  0  0  0
 20  3  1  0  0  0  0
 20 25  1  0  0  0  0
 21 22  1  0  0  0  0
 21 20  1  0  0  0  0
 22 23  1  0  0  0  0
 23 24  1  0  0  0  0
 25 24  1  0  0  0  0
 26 31  1  0  0  0  0
 27 26  1  0  0  0  0
 27 28  1  0  0  0  0
 28 29  1  0  0  0  0
 30 29  1  0  0  0  0
 30 31  1  0  0  0  0
M  END
>  <Pose>
1

>  <Score>
-8.351

$$$$
