/Users/jonathanwahrer/Desktop/Msc/3_Semester/Drug_Design_Praktikum/waehrer_HTS_screening/HTS_experiment/out/docking_results/vina_output/6q9y/1893_docked.pdbqt
 OpenBabel03222220283D

 28 31  0  0  0  0  0  0  0  0999 V2000
   -3.0260   18.7740  -11.9320 N   0  0  0  0  0  0  0  0  0  0  0  0
   -1.9480   18.1130  -11.4490 C   0  0  0  0  0  0  0  0  0  0  0  0
   -1.5410   18.2050  -10.2610 O   0  0  0  0  0  0  0  0  0  0  0  0
   -1.3630   17.3320  -12.4320 C   0  0  0  0  0  0  0  0  0  0  0  0
   -2.0880   17.5170  -13.5240 C   0  0  0  0  0  0  0  0  0  0  0  0
   -1.5160   16.7550  -14.4790 N   0  0  0  0  0  0  0  0  0  0  0  0
   -0.4580   16.1240  -13.9530 N   0  0  0  0  0  0  0  0  0  0  0  0
   -0.3560   16.4760  -12.6810 N   0  0  0  0  0  0  0  0  0  0  0  0
   -3.1050   18.3980  -13.2210 C   0  0  0  0  0  0  0  0  0  0  0  0
   -3.9640   18.7750  -14.0480 O   0  0  0  0  0  0  0  0  0  0  0  0
   -1.8470   16.6770  -15.4590 H   0  0  0  0  0  0  0  0  0  0  0  0
    0.1980   15.4630  -14.4220 H   0  0  0  0  0  0  0  0  0  0  0  0
    0.6440   16.0300  -11.7340 C   0  0  0  0  0  2  0  0  0  0  0  0
    1.2380   14.7180  -12.0920 C   0  0  0  0  0  0  0  0  0  0  0  0
    0.5220   13.6590  -12.6030 C   0  0  0  0  0  3  0  0  0  0  0  0
    1.0790   12.4400  -12.9350 C   0  0  0  0  0  0  0  0  0  0  0  0
    2.4280   12.2570  -12.7500 C   0  0  0  0  0  3  0  0  0  0  0  0
    3.1820   13.2890  -12.2420 C   0  0  0  0  0  3  0  0  0  0  0  0
    2.5980   14.5010  -11.9160 C   0  0  0  0  0  3  0  0  0  0  0  0
    0.2590   11.4270  -13.4480 O   0  0  0  0  0  0  0  0  0  0  0  0
   -1.1470   11.5680  -13.4930 C   0  0  0  0  0  1  0  0  0  0  0  0
   -3.8660   19.6590  -11.2230 C   0  0  0  0  0  0  0  0  0  0  0  0
   -3.4270   20.3330  -10.1030 C   0  0  0  0  0  3  0  0  0  0  0  0
   -4.2310   21.2040   -9.3910 C   0  0  0  0  0  3  0  0  0  0  0  0
   -5.5250   21.4020   -9.8250 C   0  0  0  0  0  0  0  0  0  0  0  0
   -6.6130   22.4990   -8.9670 Cl  0  0  0  0  0  0  0  0  0  0  0  0
   -6.0120   20.7500  -10.9400 C   0  0  0  0  0  3  0  0  0  0  0  0
   -5.1670   19.8820  -11.6260 C   0  0  0  0  0  3  0  0  0  0  0  0
  1  2  1  0  0  0  0
  1 22  1  0  0  0  0
  2  3  2  0  0  0  0
  4  2  1  0  0  0  0
  5  9  1  0  0  0  0
  5  4  2  0  0  0  0
  6  7  1  0  0  0  0
  6  5  1  0  0  0  0
  7  8  1  0  0  0  0
  8  4  1  0  0  0  0
  8 13  1  0  0  0  0
  9  1  1  0  0  0  0
 10  9  2  0  0  0  0
 11  6  1  0  0  0  0
 12  7  1  0  0  0  0
 14 19  1  0  0  0  0
 14 13  1  0  0  0  0
 15 14  2  0  0  0  0
 16 17  2  0  0  0  0
 16 15  1  0  0  0  0
 17 18  1  0  0  0  0
 18 19  2  0  0  0  0
 20 16  1  0  0  0  0
 21 20  1  0  0  0  0
 22 23  1  0  0  0  0
 23 24  2  0  0  0  0
 25 24  1  0  0  0  0
 25 26  1  0  0  0  0
 27 25  2  0  0  0  0
 28 22  2  0  0  0  0
 28 27  1  0  0  0  0
M  END
>  <Pose>
1

>  <Score>
-10.660

$$$$
