/Users/jonathanwahrer/Desktop/Msc/3_Semester/Drug_Design_Praktikum/waehrer_HTS_screening/HTS_experiment/out/docking_results/vina_output/6q9y/1894_docked.pdbqt
 OpenBabel03222220283D

 26 29  0  0  0  0  0  0  0  0999 V2000
   -3.0140   18.7840  -11.9140 N   0  0  0  0  0  0  0  0  0  0  0  0
   -1.9360   18.1180  -11.4440 C   0  0  0  0  0  0  0  0  0  0  0  0
   -1.5200   18.1990  -10.2690 O   0  0  0  0  0  0  0  0  0  0  0  0
   -1.3620   17.3400  -12.4360 C   0  0  0  0  0  0  0  0  0  0  0  0
   -2.1090   17.5380  -13.5320 C   0  0  0  0  0  0  0  0  0  0  0  0
   -1.5460   16.7780  -14.4880 N   0  0  0  0  0  0  0  0  0  0  0  0
   -0.4990   16.1450  -13.9910 N   0  0  0  0  0  0  0  0  0  0  0  0
   -0.3710   16.4810  -12.7250 N   0  0  0  0  0  0  0  0  0  0  0  0
   -3.1140   18.4210  -13.1980 C   0  0  0  0  0  0  0  0  0  0  0  0
   -4.0020   18.8310  -13.9950 O   0  0  0  0  0  0  0  0  0  0  0  0
   -1.8590   16.6790  -15.4760 H   0  0  0  0  0  0  0  0  0  0  0  0
    0.1390   15.4760  -14.5160 H   0  0  0  0  0  0  0  0  0  0  0  0
   -3.8630   19.6790  -11.1960 C   0  0  0  0  0  0  0  0  0  0  0  0
   -5.1640   19.9050  -11.5900 C   0  0  0  0  0  3  0  0  0  0  0  0
   -5.9930   20.7710  -10.9010 C   0  0  0  0  0  3  0  0  0  0  0  0
   -5.5500   21.4460   -9.7840 C   0  0  0  0  0  0  0  0  0  0  0  0
   -6.6080   22.5490   -8.9070 Cl  0  0  0  0  0  0  0  0  0  0  0  0
   -4.2490   21.2280   -9.3800 C   0  0  0  0  0  3  0  0  0  0  0  0
   -3.4270   20.3620  -10.0750 C   0  0  0  0  0  3  0  0  0  0  0  0
    0.6410   16.0270  -11.8010 C   0  0  0  0  0  2  0  0  0  0  0  0
    1.2650   14.7430  -12.1840 C   0  0  0  0  0  0  0  0  0  0  0  0
    0.4710   13.6810  -12.5430 C   0  0  0  0  0  3  0  0  0  0  0  0
    1.0730   12.4940  -12.8930 C   0  0  0  0  0  3  0  0  0  0  0  0
    2.4490   12.3530  -12.8900 C   0  0  0  0  0  3  0  0  0  0  0  0
    3.2460   13.4160  -12.5300 C   0  0  0  0  0  3  0  0  0  0  0  0
    2.6320   14.5890  -12.1860 C   0  0  0  0  0  3  0  0  0  0  0  0
  1  2  1  0  0  0  0
  1 13  1  0  0  0  0
  2  3  2  0  0  0  0
  4  2  1  0  0  0  0
  5  9  1  0  0  0  0
  5  4  2  0  0  0  0
  6  7  1  0  0  0  0
  6  5  1  0  0  0  0
  7  8  1  0  0  0  0
  8  4  1  0  0  0  0
  8 20  1  0  0  0  0
  9  1  1  0  0  0  0
 10  9  2  0  0  0  0
 11  6  1  0  0  0  0
 12  7  1  0  0  0  0
 13 19  1  0  0  0  0
 14 13  2  0  0  0  0
 14 15  1  0  0  0  0
 15 16  2  0  0  0  0
 16 18  1  0  0  0  0
 16 17  1  0  0  0  0
 19 18  2  0  0  0  0
 21 20  1  0  0  0  0
 22 21  2  0  0  0  0
 23 24  2  0  0  0  0
 23 22  1  0  0  0  0
 24 25  1  0  0  0  0
 25 26  2  0  0  0  0
 26 21  1  0  0  0  0
M  END
>  <Pose>
1

>  <Score>
-10.587

$$$$
