/Users/jonathanwahrer/Desktop/Msc/3_Semester/Drug_Design_Praktikum/waehrer_HTS_screening/HTS_experiment/out/docking_results/vina_output/6q9y/1895_docked.pdbqt
 OpenBabel03222220283D

 32 35  0  0  1  0  0  0  0  0999 V2000
   -1.4290    6.9740  -13.4590 N   0  0  0  0  0  0  0  0  0  0  0  0
   -0.6070    7.9870  -13.9960 C   0  0  0  0  0  2  0  0  0  0  0  0
    0.4200    8.3700  -12.9090 C   0  0  0  0  0  2  0  0  0  0  0  0
    1.2660    7.2070  -12.8280 N   0  0  0  0  0  0  0  0  0  0  0  0
    0.5470    6.0280  -12.2980 C   0  0  0  0  0  2  0  0  0  0  0  0
   -0.8400    5.9000  -12.7770 C   0  0  0  0  0  2  0  0  0  0  0  0
    2.6090    7.0630  -13.1690 C   0  0  0  0  0  0  0  0  0  0  0  0
    3.0620    5.8400  -12.9700 O   0  0  0  0  0  0  0  0  0  0  0  0
    3.6210    7.9430  -13.6940 C   0  0  0  0  0  2  0  0  0  0  0  0
    3.2750    9.3090  -13.9430 N   0  0  0  0  0  0  0  0  0  0  0  0
    2.6590    9.8090  -15.1310 C   0  0  0  0  0  0  0  0  0  0  0  0
    2.3590    9.0760  -16.1330 O   0  0  0  0  0  0  0  0  0  0  0  0
    2.4630   11.1980  -14.9740 N   0  0  0  0  0  0  0  0  0  0  0  0
    2.5800   11.5170  -13.5600 C   0  0  1  0  0  0  0  0  0  0  0  0
    2.2690   11.8880  -15.7160 H   0  0  0  0  0  0  0  0  0  0  0  0
    3.2380   12.8220  -13.2790 C   0  0  1  0  0  3  0  0  0  0  0  0
    1.1890   11.4260  -12.9730 C   0  0  0  0  0  2  0  0  0  0  0  0
    3.4540   10.4160  -13.0560 C   0  0  0  0  0  0  0  0  0  0  0  0
    2.5990   13.3980  -12.0110 C   0  0  0  0  0  2  0  0  0  0  0  0
    4.7180   12.7200  -12.9940 C   0  0  0  0  0  1  0  0  0  0  0  0
    1.2160   13.8700  -12.4160 C   0  0  0  0  0  2  0  0  0  0  0  0
    0.5310   12.7780  -13.2010 C   0  0  0  0  0  2  0  0  0  0  0  0
    4.1970   10.4490  -12.0560 O   0  0  0  0  0  0  0  0  0  0  0  0
   -2.7950    6.5830  -14.4050 S   0  0  0  0  0  0  0  0  0  0  0  0
   -2.4910    6.2540  -15.8130 O   0  0  0  0  0  0  0  0  0  0  0  0
   -3.4800    5.3970  -13.7690 O   0  0  0  0  0  0  0  0  0  0  0  0
   -3.8980    7.9680  -14.3350 C   0  0  0  0  0  0  0  0  0  0  0  0
   -5.5580    8.0620  -14.7050 S   0  0  0  0  0  0  0  0  0  0  0  0
   -5.8190    9.7110  -14.3740 C   0  0  0  0  0  0  0  0  0  0  0  0
   -4.5830   10.1510  -13.9770 C   0  0  0  0  0  3  0  0  0  0  0  0
   -7.3230   10.6360  -14.5090 Cl  0  0  0  0  0  0  0  0  0  0  0  0
   -3.5920    9.2430  -13.9590 C   0  0  0  0  0  3  0  0  0  0  0  0
  1  6  1  0  0  0  0
  2  1  1  0  0  0  0
  2  3  1  0  0  0  0
  3  4  1  0  0  0  0
  4  5  1  0  0  0  0
  6  5  1  0  0  0  0
  7  8  2  0  0  0  0
  7  4  1  0  0  0  0
  9  7  1  0  0  0  0
 10  9  1  0  0  0  0
 10 18  1  0  0  0  0
 11 13  1  0  0  0  0
 11 10  1  0  0  0  0
 12 11  2  0  0  0  0
 13 14  1  0  0  0  0
 14 16  1  0  0  0  0
 14 18  1  0  0  0  0
 14 17  1  1  0  0  0
 15 13  1  0  0  0  0
 16 20  1  1  0  0  0
 16 19  1  0  0  0  0
 18 23  2  0  0  0  0
 21 19  1  0  0  0  0
 22 17  1  0  0  0  0
 22 21  1  0  0  0  0
 24 27  1  0  0  0  0
 24 26  2  0  0  0  0
 24  1  1  0  0  0  0
 25 24  2  0  0  0  0
 27 32  2  0  0  0  0
 28 29  1  0  0  0  0
 28 27  1  0  0  0  0
 29 30  2  0  0  0  0
 30 32  1  0  0  0  0
 31 29  1  0  0  0  0
M  END
>  <Pose>
1

>  <Score>
-7.921

$$$$
