/Users/jonathanwahrer/Desktop/Msc/3_Semester/Drug_Design_Praktikum/waehrer_HTS_screening/HTS_experiment/out/docking_results/vina_output/6q9y/1927_docked.pdbqt
 OpenBabel03222220293D

 36 39  0  0  1  0  0  0  0  0999 V2000
   -3.7270    9.1740  -14.1060 C   0  0  0  0  0  2  0  0  0  0  0  0
   -2.4290    9.8090  -13.8320 C   0  0  0  0  0  0  0  0  0  0  0  0
   -1.2990    9.3400  -13.1760 N   0  0  0  0  0  0  0  0  0  0  0  0
   -1.2100    8.1560  -12.3960 C   0  0  0  0  0  2  0  0  0  0  0  0
   -0.0450   10.1280  -13.3020 C   0  0  0  0  0  2  0  0  0  0  0  0
   -0.1470    7.2350  -12.9570 C   0  0  0  0  0  2  0  0  0  0  0  0
    1.1590    7.9780  -12.6880 C   0  0  2  0  0  0  0  0  0  0  0  0
    1.1880    9.2930  -13.3740 C   0  0  0  0  0  2  0  0  0  0  0  0
   -2.3580   11.0320  -14.2910 O   0  0  0  0  0  0  0  0  0  0  0  0
    2.2950    7.1010  -12.9060 C   0  0  0  0  0  0  0  0  0  0  0  0
    2.2040    5.7910  -12.4170 C   0  0  0  0  0  3  0  0  0  0  0  0
    3.2520    4.8800  -12.5420 C   0  0  0  0  0  3  0  0  0  0  0  0
    4.4260    5.2360  -13.1590 C   0  0  0  0  0  0  0  0  0  0  0  0
    5.7720    4.0770  -13.3120 Cl  0  0  0  0  0  0  0  0  0  0  0  0
    4.5300    6.5280  -13.6470 C   0  0  0  0  0  3  0  0  0  0  0  0
    3.4840    7.4220  -13.5150 C   0  0  0  0  0  3  0  0  0  0  0  0
    1.0950    8.2500  -11.2840 O   0  0  0  0  0  0  0  0  0  0  0  0
    0.2540    7.8410  -10.9610 H   0  0  0  0  0  0  0  0  0  0  0  0
   -4.8030   10.0000  -14.4400 N   0  0  0  0  0  0  0  0  0  0  0  0
   -5.9720   10.1890  -13.6400 C   0  0  0  0  0  0  0  0  0  0  0  0
   -5.9990    9.5220  -12.5730 O   0  0  0  0  0  0  0  0  0  0  0  0
   -4.7810   10.6100  -15.3010 H   0  0  0  0  0  0  0  0  0  0  0  0
   -7.0180   11.0850  -14.0500 C   0  0  0  0  0  3  0  0  0  0  0  0
   -7.8400   11.0340  -15.0460 C   0  0  0  0  0  0  0  0  0  0  0  0
   -7.8420    9.9780  -16.0090 N   0  0  0  0  0  0  0  0  0  0  0  0
   -8.8740   12.0830  -15.2370 C   0  0  0  0  0  0  0  0  0  0  0  0
   -8.7670    9.9350  -17.0740 N   0  0  0  0  0  0  0  0  0  0  0  0
   -7.1470    9.1950  -15.9510 H   0  0  0  0  0  0  0  0  0  0  0  0
   -9.7380   10.9440  -17.2330 C   0  0  0  0  0  0  0  0  0  0  0  0
   -8.7460    9.1450  -17.7600 H   0  0  0  0  0  0  0  0  0  0  0  0
  -10.5500   10.8660  -18.2010 O   0  0  0  0  0  0  0  0  0  0  0  0
   -9.7720   12.0340  -16.2780 C   0  0  0  0  0  0  0  0  0  0  0  0
  -10.7580   12.9820  -16.4610 C   0  0  0  0  0  3  0  0  0  0  0  0
  -10.8360   14.0270  -15.5440 C   0  0  0  0  0  3  0  0  0  0  0  0
   -9.9660   14.1210  -14.4920 C   0  0  0  0  0  3  0  0  0  0  0  0
   -8.9890   13.1270  -14.3640 C   0  0  0  0  0  3  0  0  0  0  0  0
  1  2  1  0  0  0  0
  2  3  1  0  0  0  0
  3  4  1  0  0  0  0
  5  3  1  0  0  0  0
  6  7  1  0  0  0  0
  6  4  1  0  0  0  0
  7 17  1  1  0  0  0
  8  5  1  0  0  0  0
  8  7  1  0  0  0  0
  9  2  2  0  0  0  0
 10  7  1  0  0  0  0
 10 11  1  0  0  0  0
 12 11  2  0  0  0  0
 13 12  1  0  0  0  0
 14 13  1  0  0  0  0
 15 16  1  0  0  0  0
 15 13  2  0  0  0  0
 16 10  2  0  0  0  0
 17 18  1  0  0  0  0
 19  1  1  0  0  0  0
 19 20  1  0  0  0  0
 20 21  2  0  0  0  0
 22 19  1  0  0  0  0
 23 20  1  0  0  0  0
 24 23  2  0  0  0  0
 25 28  1  0  0  0  0
 25 24  1  0  0  0  0
 26 24  1  0  0  0  0
 26 36  1  0  0  0  0
 27 25  1  0  0  0  0
 29 27  1  0  0  0  0
 29 32  1  0  0  0  0
 30 27  1  0  0  0  0
 31 29  2  0  0  0  0
 32 26  2  0  0  0  0
 33 32  1  0  0  0  0
 33 34  2  0  0  0  0
 34 35  1  0  0  0  0
 35 36  2  0  0  0  0
M  END
>  <Pose>
1

>  <Score>
-11.335

$$$$
