/Users/jonathanwahrer/Desktop/Msc/3_Semester/Drug_Design_Praktikum/waehrer_HTS_screening/HTS_experiment/out/docking_results/vina_output/6q9y/1937_docked.pdbqt
 OpenBabel03222220303D

 31 34  0  0  1  0  0  0  0  0999 V2000
    2.0860   13.9390  -12.6220 N   0  0  0  0  0  0  0  0  0  0  0  0
    3.2030   13.4340  -11.9690 C   0  0  0  0  0  2  0  0  0  0  0  0
    2.9480   11.8840  -11.7380 C   0  0  0  0  0  2  0  0  0  0  0  0
    2.1050   11.5830  -12.8650 N   0  0  0  0  0  0  0  0  0  0  0  0
    0.6890   11.9550  -12.5790 C   0  0  0  0  0  2  0  0  0  0  0  0
    0.8300   13.3500  -12.0360 C   0  0  0  0  0  2  0  0  0  0  0  0
    2.5060   10.9600  -14.0090 C   0  0  0  0  0  0  0  0  0  0  0  0
    1.8220   11.1710  -15.0690 O   0  0  0  0  0  0  0  0  0  0  0  0
    1.8340   15.3510  -12.7770 C   0  0  0  0  0  2  0  0  0  0  0  0
    0.3690   15.4930  -13.2040 C   0  0  0  0  0  0  0  0  0  0  0  0
   -0.4440   16.3390  -12.4450 N   0  0  0  0  0  0  0  0  0  0  0  0
   -0.0290   16.6150  -11.4850 H   0  0  0  0  0  0  0  0  0  0  0  0
   -0.0300   14.8960  -14.1690 O   0  0  0  0  0  0  0  0  0  0  0  0
   -1.7590   16.7720  -12.7500 C   0  0  0  0  0  2  0  0  0  0  0  0
   -2.1620   17.9850  -11.9910 C   0  0  0  0  0  0  0  0  0  0  0  0
   -3.3320   18.6340  -12.3670 C   0  0  0  0  0  0  0  0  0  0  0  0
   -4.1000   18.1560  -13.8620 Cl  0  0  0  0  0  0  0  0  0  0  0  0
   -3.8590   19.6520  -11.6420 C   0  0  0  0  0  3  0  0  0  0  0  0
   -3.2980   20.1200  -10.4710 C   0  0  0  0  0  3  0  0  0  0  0  0
   -2.1110   19.4600  -10.0920 C   0  0  0  0  0  3  0  0  0  0  0  0
   -1.5620   18.4260  -10.8410 C   0  0  0  0  0  3  0  0  0  0  0  0
    3.6560   10.0200  -14.1910 C   0  0  1  0  0  3  0  0  0  0  0  0
    3.4190    8.9740  -13.1930 O   0  0  0  0  0  0  0  0  0  0  0  0
    2.0220    8.7180  -13.0680 C   0  0  0  0  0  0  0  0  0  0  0  0
    1.2610    8.8200  -14.2020 C   0  0  0  0  0  0  0  0  0  0  0  0
    1.4380    8.3720  -11.8550 C   0  0  0  0  0  3  0  0  0  0  0  0
   -0.1120    8.5960  -14.1780 C   0  0  0  0  0  3  0  0  0  0  0  0
    1.8790    9.1560  -15.4110 O   0  0  0  0  0  0  0  0  0  0  0  0
   -0.6610    8.2640  -12.9450 C   0  0  0  0  0  3  0  0  0  0  0  0
    0.0770    8.1450  -11.7880 C   0  0  0  0  0  3  0  0  0  0  0  0
    3.3210    9.2690  -15.5080 C   0  0  0  0  0  2  0  0  0  0  0  0
  1  6  1  0  0  0  0
  1  2  1  0  0  0  0
  2  3  1  0  0  0  0
  4  5  1  0  0  0  0
  4  3  1  0  0  0  0
  5  6  1  0  0  0  0
  7  4  1  0  0  0  0
  8  7  2  0  0  0  0
  9  1  1  0  0  0  0
 10  9  1  0  0  0  0
 10 11  1  0  0  0  0
 11 12  1  0  0  0  0
 13 10  2  0  0  0  0
 14 11  1  0  0  0  0
 14 15  1  0  0  0  0
 15 21  1  0  0  0  0
 16 15  2  0  0  0  0
 16 18  1  0  0  0  0
 17 16  1  0  0  0  0
 18 19  2  0  0  0  0
 19 20  1  0  0  0  0
 21 20  2  0  0  0  0
 22  7  1  1  0  0  0
 22 23  1  0  0  0  0
 23 24  1  0  0  0  0
 24 26  1  0  0  0  0
 25 27  1  0  0  0  0
 25 24  2  0  0  0  0
 26 30  2  0  0  0  0
 27 29  2  0  0  0  0
 28 25  1  0  0  0  0
 29 30  1  0  0  0  0
 31 28  1  0  0  0  0
 31 22  1  0  0  0  0
M  END
>  <Pose>
1

>  <Score>
-8.985

$$$$
