/Users/jonathanwahrer/Desktop/Msc/3_Semester/Drug_Design_Praktikum/waehrer_HTS_screening/HTS_experiment/out/docking_results/vina_output/6q9y/1940_docked.pdbqt
 OpenBabel03222220313D

 30 33  0  0  1  0  0  0  0  0999 V2000
    2.1250    8.5750  -12.6230 C   0  0  1  0  0  3  0  0  0  0  0  0
    2.4930    9.7010  -13.4910 N   0  0  0  0  0  0  0  0  0  0  0  0
    2.2070    9.2690  -14.8090 C   0  0  0  0  0  0  0  0  0  0  0  0
    2.7820    9.6410  -15.8590 O   0  0  0  0  0  0  0  0  0  0  0  0
    1.1030    8.2950  -14.7110 C   0  0  0  0  0  0  0  0  0  0  0  0
    0.5460    7.6700  -15.6410 O   0  0  0  0  0  0  0  0  0  0  0  0
    0.8060    8.2180  -13.2870 C   0  0  0  0  0  0  0  0  0  0  0  0
   -0.3220    7.9260  -12.7390 C   0  0  0  0  0  0  0  0  0  0  0  0
   -0.4640    7.9050  -11.3520 O   0  0  0  0  0  1  0  0  0  0  0  0
    3.0430   10.9770  -13.0570 C   0  0  0  0  0  2  0  0  0  0  0  0
    2.1410   12.1480  -13.2910 C   0  0  0  0  0  2  0  0  0  0  0  0
    1.5900   12.7600  -12.1310 N   0  0  0  0  0  4  0  0  0  0  0  0
    2.3180   13.8530  -11.5720 C   0  0  0  0  0  2  0  0  0  0  0  0
    2.4120   15.0530  -12.4870 C   0  0  0  0  0  2  0  0  0  0  0  0
    1.1460   15.4950  -12.8560 O   0  0  0  0  0  0  0  0  0  0  0  0
    0.3540   14.4630  -13.3490 C   0  0  0  0  0  2  0  0  0  0  0  0
    0.2410   13.2960  -12.4030 C   0  0  0  0  0  2  0  0  0  0  0  0
    1.4960   12.0310  -11.3900 H   0  0  0  0  0  0  0  0  0  0  0  0
    3.0110    7.4110  -12.8750 C   0  0  0  0  0  0  0  0  0  0  0  0
    4.2310    7.5370  -13.4900 C   0  0  0  0  0  3  0  0  0  0  0  0
    5.0670    6.4620  -13.7190 C   0  0  0  0  0  3  0  0  0  0  0  0
    4.6770    5.2020  -13.3200 C   0  0  0  0  0  0  0  0  0  0  0  0
    5.6720    3.7890  -13.5670 Cl  0  0  0  0  0  0  0  0  0  0  0  0
    3.4610    5.0520  -12.7020 C   0  0  0  0  0  3  0  0  0  0  0  0
    2.6320    6.1290  -12.4760 C   0  0  0  0  0  3  0  0  0  0  0  0
   -1.4880    7.6050  -13.5550 C   0  0  0  0  0  0  0  0  0  0  0  0
   -2.3970    8.3420  -14.0860 O   0  0  0  0  0  0  0  0  0  0  0  0
   -3.2610    7.6210  -14.7420 C   0  0  0  0  0  3  0  0  0  0  0  0
   -2.9090    6.2980  -14.6470 C   0  0  0  0  0  3  0  0  0  0  0  0
   -1.7730    6.2740  -13.8880 C   0  0  0  0  0  3  0  0  0  0  0  0
  1 19  1  6  0  0  0
  2 10  1  0  0  0  0
  2  1  1  0  0  0  0
  3  5  1  0  0  0  0
  3  2  1  0  0  0  0
  4  3  2  0  0  0  0
  5  7  1  0  0  0  0
  6  5  2  0  0  0  0
  7  8  2  0  0  0  0
  7  1  1  0  0  0  0
  8  9  1  0  0  0  0
 11 10  1  0  0  0  0
 11 12  1  0  0  0  0
 12 13  1  0  0  0  0
 12 18  1  0  0  0  0
 14 13  1  0  0  0  0
 15 14  1  0  0  0  0
 16 15  1  0  0  0  0
 16 17  1  0  0  0  0
 17 12  1  0  0  0  0
 19 25  1  0  0  0  0
 20 19  2  0  0  0  0
 21 20  1  0  0  0  0
 21 22  2  0  0  0  0
 22 24  1  0  0  0  0
 23 22  1  0  0  0  0
 24 25  2  0  0  0  0
 26  8  1  0  0  0  0
 27 26  1  0  0  0  0
 28 29  2  0  0  0  0
 28 27  1  0  0  0  0
 29 30  1  0  0  0  0
 30 26  2  0  0  0  0
M  END
>  <Pose>
1

>  <Score>
-6.998

$$$$
