/Users/jonathanwahrer/Desktop/Msc/3_Semester/Drug_Design_Praktikum/waehrer_HTS_screening/HTS_experiment/out/docking_results/vina_output/6q9y/1943_docked.pdbqt
 OpenBabel03222220313D

 34 38  0  0  1  0  0  0  0  0999 V2000
    0.7690   11.1840  -13.5110 N   0  0  0  0  0  0  0  0  0  0  0  0
   -0.6390   10.8840  -13.6320 C   0  0  0  0  0  0  0  0  0  0  0  0
   -1.5660   11.6810  -13.4670 O   0  0  0  0  0  0  0  0  0  0  0  0
   -0.8100    9.4700  -13.9890 C   0  0  2  0  0  3  0  0  0  0  0  0
   -1.8410    8.7130  -13.1850 C   0  0  2  0  0  0  0  0  0  0  0  0
   -1.1640    8.1010  -12.0670 N   0  0  0  0  0  0  0  0  0  0  0  0
    0.1450    8.7190  -11.9960 C   0  0  2  0  0  3  0  0  0  0  0  0
    0.4750    8.8710  -13.4670 C   0  0  2  0  0  3  0  0  0  0  0  0
    1.4510    9.9410  -13.7470 C   0  0  0  0  0  0  0  0  0  0  0  0
    2.6120    9.7360  -14.1110 O   0  0  0  0  0  0  0  0  0  0  0  0
   -2.3870    7.6810  -14.1330 C   0  0  0  0  0  0  0  0  0  0  0  0
   -3.6740    8.0320  -14.4270 C   0  0  0  0  0  0  0  0  0  0  0  0
   -4.4490    7.2990  -15.3400 C   0  0  0  0  0  3  0  0  0  0  0  0
   -3.9170    6.1910  -15.9670 C   0  0  0  0  0  3  0  0  0  0  0  0
   -2.6280    5.8370  -15.6700 C   0  0  0  0  0  3  0  0  0  0  0  0
   -1.8800    6.5680  -14.7720 C   0  0  0  0  0  3  0  0  0  0  0  0
   -4.0940    9.1350  -13.6410 N   0  0  0  0  0  0  0  0  0  0  0  0
   -3.0040    9.4880  -12.8030 C   0  0  0  0  0  0  0  0  0  0  0  0
   -3.0870   10.3370  -11.8910 O   0  0  0  0  0  0  0  0  0  0  0  0
   -1.7300    8.2960  -11.2070 H   0  0  0  0  0  0  0  0  0  0  0  0
   -5.0480    9.6100  -13.6730 H   0  0  0  0  0  0  0  0  0  0  0  0
    1.1530    7.8450  -11.2970 C   0  0  0  0  0  2  0  0  0  0  0  0
    1.3060    6.5180  -11.8840 C   0  0  0  0  0  0  0  0  0  0  0  0
    0.3560    5.7110  -11.8840 O   0  0  0  0  0  0  0  0  0  0  0  0
    2.5400    6.1370  -12.4600 N   0  0  0  0  0  0  0  0  0  0  0  0
    3.4050    6.7300  -12.4510 H   0  0  0  0  0  0  0  0  0  0  0  0
    2.6830    5.2070  -12.9510 H   0  0  0  0  0  0  0  0  0  0  0  0
    1.3890   12.4070  -13.2370 C   0  0  0  0  0  0  0  0  0  0  0  0
    2.7380   12.5440  -13.0570 C   0  0  0  0  0  3  0  0  0  0  0  0
    3.3530   13.7610  -12.7880 C   0  0  0  0  0  3  0  0  0  0  0  0
    2.5850   14.8960  -12.6940 C   0  0  0  0  0  0  0  0  0  0  0  0
    3.3480   16.4420  -12.3650 Cl  0  0  0  0  0  0  0  0  0  0  0  0
    1.2390   14.7970  -12.8660 C   0  0  0  0  0  3  0  0  0  0  0  0
    0.6470   13.5590  -13.1360 C   0  0  0  0  0  3  0  0  0  0  0  0
  1 28  1  0  0  0  0
  2  1  1  0  0  0  0
  2  3  2  0  0  0  0
  4  2  1  1  0  0  0
  4  8  1  0  0  0  0
  4  5  1  0  0  0  0
  5 11  1  6  0  0  0
  5 18  1  0  0  0  0
  5  6  1  0  0  0  0
  6  7  1  0  0  0  0
  6 20  1  0  0  0  0
  7 22  1  1  0  0  0
  8  9  1  1  0  0  0
  8  7  1  0  0  0  0
  9  1  1  0  0  0  0
 10  9  2  0  0  0  0
 12 11  1  0  0  0  0
 12 17  1  0  0  0  0
 13 12  2  0  0  0  0
 14 15  2  0  0  0  0
 14 13  1  0  0  0  0
 15 16  1  0  0  0  0
 16 11  2  0  0  0  0
 17 18  1  0  0  0  0
 18 19  2  0  0  0  0
 21 17  1  0  0  0  0
 23 22  1  0  0  0  0
 24 23  2  0  0  0  0
 25 26  1  0  0  0  0
 25 23  1  0  0  0  0
 27 25  1  0  0  0  0
 28 34  2  0  0  0  0
 28 29  1  0  0  0  0
 29 30  2  0  0  0  0
 30 31  1  0  0  0  0
 31 32  1  0  0  0  0
 33 31  2  0  0  0  0
 34 33  1  0  0  0  0
M  END
>  <Pose>
1

>  <Score>
-5.898

$$$$
