/Users/jonathanwahrer/Desktop/Msc/3_Semester/Drug_Design_Praktikum/waehrer_HTS_screening/HTS_experiment/out/docking_results/vina_output/6q9y/1956_docked.pdbqt
 OpenBabel03222220313D

 35 38  0  0  1  0  0  0  0  0999 V2000
    2.2340    9.8380  -12.1000 C   0  0  0  0  0  0  0  0  0  0  0  0
    2.9320    9.0350  -12.8850 C   0  0  0  0  0  0  0  0  0  0  0  0
    2.9860    7.5320  -12.7700 C   0  0  2  0  0  3  0  0  0  0  0  0
    4.0870    7.1230  -13.5930 N   0  0  0  0  0  0  0  0  0  0  0  0
    4.5340    8.2000  -14.4040 C   0  0  0  0  0  0  0  0  0  0  0  0
    5.3730    8.1500  -15.3150 O   0  0  0  0  0  0  0  0  0  0  0  0
    3.8040    9.4080  -13.9530 C   0  0  0  0  0  0  0  0  0  0  0  0
    3.9550   10.5500  -14.4470 O   0  0  0  0  0  0  0  0  0  0  0  0
    1.4910    9.2100  -11.0730 O   0  0  0  0  0  1  0  0  0  0  0  0
    1.6670    7.0270  -13.2390 C   0  0  0  0  0  0  0  0  0  0  0  0
    1.0760    5.9700  -12.6090 C   0  0  0  0  0  3  0  0  0  0  0  0
   -0.1400    5.5210  -13.0380 C   0  0  0  0  0  3  0  0  0  0  0  0
   -0.7970    6.1060  -14.0990 C   0  0  0  0  0  0  0  0  0  0  0  0
   -0.2000    7.1760  -14.7400 C   0  0  0  0  0  3  0  0  0  0  0  0
    1.0350    7.6280  -14.2990 C   0  0  0  0  0  3  0  0  0  0  0  0
   -2.0350    5.6420  -14.5310 O   0  0  0  0  0  0  0  0  0  0  0  0
   -2.7430    6.4160  -15.5110 C   0  0  0  0  0  2  0  0  0  0  0  0
   -4.0030    6.9870  -14.8660 C   0  0  0  0  0  2  0  0  0  0  0  0
   -3.8010    8.4920  -14.7550 C   0  0  0  0  0  1  0  0  0  0  0  0
    4.6860    5.7930  -13.5960 C   0  0  0  0  0  2  0  0  0  0  0  0
    5.9200    5.7940  -12.7610 C   0  0  0  0  0  2  0  0  0  0  0  0
    7.1300    5.9330  -13.5870 N   0  0  0  0  0  4  0  0  0  0  0  0
    7.8170    4.6780  -13.5780 C   0  0  0  0  0  2  0  0  0  0  0  0
    9.2590    4.8150  -14.0620 C   0  0  0  0  0  2  0  0  0  0  0  0
    9.8690    5.7530  -13.2100 O   0  0  0  0  0  0  0  0  0  0  0  0
    9.3260    6.9860  -13.5040 C   0  0  0  0  0  2  0  0  0  0  0  0
    7.8920    7.0210  -13.0140 C   0  0  0  0  0  2  0  0  0  0  0  0
    6.8710    6.1790  -14.5780 H   0  0  0  0  0  0  0  0  0  0  0  0
    2.2150   11.2750  -12.2600 C   0  0  0  0  0  0  0  0  0  0  0  0
    3.2270   12.0500  -11.6780 C   0  0  0  0  0  3  0  0  0  0  0  0
    3.2460   13.4270  -11.7570 C   0  0  0  0  0  3  0  0  0  0  0  0
    2.2530   14.1050  -12.4220 C   0  0  0  0  0  0  0  0  0  0  0  0
    2.2180   15.8480  -12.5600 Cl  0  0  0  0  0  0  0  0  0  0  0  0
    1.2510   13.3790  -12.9990 C   0  0  0  0  0  3  0  0  0  0  0  0
    1.2340   11.9800  -12.9170 C   0  0  0  0  0  3  0  0  0  0  0  0
  1  9  1  0  0  0  0
  2  3  1  0  0  0  0
  2  1  2  0  0  0  0
  3 10  1  6  0  0  0
  4  3  1  0  0  0  0
  5  7  1  0  0  0  0
  5  4  1  0  0  0  0
  6  5  2  0  0  0  0
  7  2  1  0  0  0  0
  8  7  2  0  0  0  0
 10 11  1  0  0  0  0
 12 11  2  0  0  0  0
 13 12  1  0  0  0  0
 14 15  1  0  0  0  0
 14 13  2  0  0  0  0
 15 10  2  0  0  0  0
 16 13  1  0  0  0  0
 17 18  1  0  0  0  0
 17 16  1  0  0  0  0
 18 19  1  0  0  0  0
 20  4  1  0  0  0  0
 20 21  1  0  0  0  0
 22 23  1  0  0  0  0
 22 27  1  0  0  0  0
 22 21  1  0  0  0  0
 24 23  1  0  0  0  0
 24 25  1  0  0  0  0
 26 25  1  0  0  0  0
 26 27  1  0  0  0  0
 28 22  1  0  0  0  0
 29  1  1  0  0  0  0
 29 30  1  0  0  0  0
 31 30  2  0  0  0  0
 32 31  1  0  0  0  0
 33 32  1  0  0  0  0
 34 35  1  0  0  0  0
 34 32  2  0  0  0  0
 35 29  2  0  0  0  0
M  END
>  <Pose>
1

>  <Score>
-7.049

$$$$
