/Users/jonathanwahrer/Desktop/Msc/3_Semester/Drug_Design_Praktikum/waehrer_HTS_screening/HTS_experiment/out/docking_results/vina_output/6q9y/1958_docked.pdbqt
 OpenBabel03222220323D

 28 31  0  0  1  0  0  0  0  0999 V2000
    3.3670   11.5800  -12.9040 C   0  0  0  0  0  0  0  0  0  0  0  0
    4.4770   12.1190  -13.2430 O   0  0  0  0  0  0  0  0  0  0  0  0
    2.8800   10.4270  -13.5360 N   0  0  0  0  0  0  0  0  0  0  0  0
    1.6420    9.8200  -13.1620 C   0  0  0  0  0  2  0  0  0  0  0  0
    1.5650    8.3450  -13.4400 C   0  0  0  0  0  2  0  0  0  0  0  0
    2.9270    7.7610  -13.4780 C   0  0  2  0  0  3  0  0  0  0  0  0
    3.9790    8.4560  -14.0450 C   0  0  0  0  0  0  0  0  0  0  0  0
    5.2110    7.9350  -14.0890 N   0  0  0  0  0  0  0  0  0  0  0  0
    5.5060    6.7150  -13.5920 C   0  0  2  0  0  3  0  0  0  0  0  0
    4.4780    6.0300  -13.0360 N   0  0  0  0  0  0  0  0  0  0  0  0
    3.2250    6.5110  -12.9680 C   0  0  0  0  0  0  0  0  0  0  0  0
    3.6430    9.8230  -14.5930 C   0  0  0  0  0  2  0  0  0  0  0  0
    2.6120   12.2460  -11.7950 C   0  0  0  0  0  2  0  0  0  0  0  0
    1.7140   13.2900  -12.3130 C   0  0  0  0  0  0  0  0  0  0  0  0
    0.4570   13.0330  -12.8190 C   0  0  0  0  0  3  0  0  0  0  0  0
   -0.3600   14.0330  -13.2990 C   0  0  0  0  0  3  0  0  0  0  0  0
    0.0730   15.3550  -13.2870 C   0  0  0  0  0  0  0  0  0  0  0  0
   -0.9530   16.6360  -13.8930 Cl  0  0  0  0  0  0  0  0  0  0  0  0
    1.3350   15.5970  -12.7780 C   0  0  0  0  0  3  0  0  0  0  0  0
    2.1500   14.5970  -12.2980 C   0  0  0  0  0  3  0  0  0  0  0  0
    2.1940    5.7820  -12.3910 O   0  0  0  0  0  0  0  0  0  0  0  0
    1.2150    5.9230  -12.6530 H   0  0  0  0  0  0  0  0  0  0  0  0
    6.8170    6.2140  -13.6620 N   0  0  0  0  0  0  0  0  0  0  0  0
    7.1350    4.9210  -13.1330 C   0  0  0  0  0  2  0  0  0  0  0  0
    8.4080    4.4620  -13.8590 C   0  0  0  0  0  2  0  0  0  0  0  0
    9.4600    5.3020  -13.5960 O   0  0  0  0  0  0  0  0  0  0  0  0
    9.2070    6.6420  -13.7130 C   0  0  0  0  0  2  0  0  0  0  0  0
    7.8540    6.9970  -14.2660 C   0  0  0  0  0  2  0  0  0  0  0  0
  1 13  1  0  0  0  0
  2  1  2  0  0  0  0
  3  4  1  0  0  0  0
  3  1  1  0  0  0  0
  5  4  1  0  0  0  0
  6  5  1  6  0  0  0
  6 11  1  0  0  0  0
  7  6  1  0  0  0  0
  8  7  2  0  0  0  0
  8  9  1  0  0  0  0
  9 23  1  1  0  0  0
  9 10  1  0  0  0  0
 10 11  2  0  0  0  0
 11 21  1  0  0  0  0
 12  7  1  0  0  0  0
 12  3  1  0  0  0  0
 14 20  1  0  0  0  0
 14 13  1  0  0  0  0
 15 14  2  0  0  0  0
 16 17  2  0  0  0  0
 16 15  1  0  0  0  0
 17 19  1  0  0  0  0
 18 17  1  0  0  0  0
 19 20  2  0  0  0  0
 22 21  1  0  0  0  0
 23 24  1  0  0  0  0
 25 26  1  0  0  0  0
 25 24  1  0  0  0  0
 27 26  1  0  0  0  0
 28 27  1  0  0  0  0
 28 23  1  0  0  0  0
M  END
>  <Pose>
1

>  <Score>
-8.364

$$$$
