/Users/jonathanwahrer/Desktop/Msc/3_Semester/Drug_Design_Praktikum/waehrer_HTS_screening/HTS_experiment/out/docking_results/vina_output/6q9y/1960_docked.pdbqt
 OpenBabel03222220323D

 28 31  0  0  0  0  0  0  0  0999 V2000
    0.4550    8.0670  -12.9940 C   0  0  0  0  0  0  0  0  0  0  0  0
    0.3880    7.8610  -11.7530 O   0  0  0  0  0  0  0  0  0  0  0  0
    1.4010    8.9870  -13.4730 N   0  0  0  0  0  0  0  0  0  0  0  0
    2.3010    9.7020  -12.5510 C   0  0  0  0  0  2  0  0  0  0  0  0
    3.6640    9.8180  -13.2170 C   0  0  0  0  0  2  0  0  0  0  0  0
    3.7790    8.6970  -14.1270 N   0  0  0  0  0  0  0  0  0  0  0  0
    2.9650    8.7850  -15.3280 C   0  0  0  0  0  2  0  0  0  0  0  0
    1.5940    9.3190  -14.8770 C   0  0  0  0  0  2  0  0  0  0  0  0
    4.6170    7.5860  -13.8530 C   0  0  0  0  0  0  0  0  0  0  0  0
    4.0630    6.3720  -13.4890 C   0  0  0  0  0  3  0  0  0  0  0  0
    4.8930    5.3240  -13.2170 N   0  0  0  0  0  0  0  0  0  0  0  0
    6.2070    5.4120  -13.2840 N   0  0  0  0  0  0  0  0  0  0  0  0
    6.8230    6.5830  -13.6380 C   0  0  0  0  0  0  0  0  0  0  0  0
    5.9910    7.6270  -13.9080 C   0  0  0  0  0  3  0  0  0  0  0  0
    8.2340    6.6090  -13.6870 N   0  0  0  0  0  0  0  0  0  0  0  0
    8.9390    6.5250  -14.9530 C   0  0  0  0  0  2  0  0  0  0  0  0
   10.1110    5.5480  -14.8480 C   0  0  0  0  0  2  0  0  0  0  0  0
   10.8610    5.7730  -13.7110 O   0  0  0  0  0  0  0  0  0  0  0  0
   10.0500    5.5430  -12.6100 C   0  0  0  0  0  2  0  0  0  0  0  0
    9.0540    6.7110  -12.5070 C   0  0  0  0  0  2  0  0  0  0  0  0
   -0.4760    7.3180  -13.8590 C   0  0  0  0  0  2  0  0  0  0  0  0
   -1.7970    7.9950  -13.9540 C   0  0  0  0  0  0  0  0  0  0  0  0
   -2.8640    7.3240  -14.5450 C   0  0  0  0  0  3  0  0  0  0  0  0
   -4.1080    7.9180  -14.6500 C   0  0  0  0  0  3  0  0  0  0  0  0
   -4.3200    9.2090  -14.1630 C   0  0  0  0  0  0  0  0  0  0  0  0
   -5.8790    9.9630  -14.2910 Cl  0  0  0  0  0  0  0  0  0  0  0  0
   -3.2550    9.8580  -13.5830 C   0  0  0  0  0  3  0  0  0  0  0  0
   -1.9990    9.2600  -13.4750 C   0  0  0  0  0  3  0  0  0  0  0  0
  1  2  2  0  0  0  0
  3  1  1  0  0  0  0
  3  4  1  0  0  0  0
  5  4  1  0  0  0  0
  6  9  1  0  0  0  0
  6  5  1  0  0  0  0
  7  8  1  0  0  0  0
  7  6  1  0  0  0  0
  8  3  1  0  0  0  0
  9 10  1  0  0  0  0
 10 11  2  0  0  0  0
 12 11  1  0  0  0  0
 13 12  2  0  0  0  0
 14  9  2  0  0  0  0
 14 13  1  0  0  0  0
 15 13  1  0  0  0  0
 15 20  1  0  0  0  0
 16 17  1  0  0  0  0
 16 15  1  0  0  0  0
 17 18  1  0  0  0  0
 18 19  1  0  0  0  0
 19 20  1  0  0  0  0
 21  1  1  0  0  0  0
 22 21  1  0  0  0  0
 22 28  1  0  0  0  0
 23 22  2  0  0  0  0
 24 23  1  0  0  0  0
 24 25  2  0  0  0  0
 25 27  1  0  0  0  0
 26 25  1  0  0  0  0
 27 28  2  0  0  0  0
M  END
>  <Pose>
1

>  <Score>
-8.976

$$$$
