/Users/jonathanwahrer/Desktop/Msc/3_Semester/Drug_Design_Praktikum/waehrer_HTS_screening/HTS_experiment/out/docking_results/vina_output/6q9y/1969_docked.pdbqt
 OpenBabel03222220333D

 26 29  0  0  0  0  0  0  0  0999 V2000
    2.9080   12.0880  -12.6090 C   0  0  0  0  0  0  0  0  0  0  0  0
    2.9850   11.8830  -11.2350 O   0  0  0  0  0  0  0  0  0  0  0  0
    2.7140   10.9190  -13.2660 N   0  0  0  0  0  0  0  0  0  0  0  0
    2.4770   10.6260  -14.6490 C   0  0  0  0  0  2  0  0  0  0  0  0
    1.7130    9.2910  -14.7620 C   0  0  0  0  0  2  0  0  0  0  0  0
    0.8740    9.2640  -13.5550 N   0  0  0  0  0  0  0  0  0  0  0  0
    1.4970    9.0530  -12.2910 C   0  0  0  0  0  2  0  0  0  0  0  0
    2.8420    9.6950  -12.4130 C   0  0  0  0  0  2  0  0  0  0  0  0
    3.0780   13.5260  -12.7130 C   0  0  0  0  0  0  0  0  0  0  0  0
    3.2220   14.7290  -12.7990 N   0  0  0  0  0  0  0  0  0  0  0  0
    2.5040   15.6730  -12.8000 N   0  0  0  0  0  0  0  0  0  0  0  0
    1.2910   15.1830  -12.6580 N   0  0  0  0  0  0  0  0  0  0  0  0
    1.4320   13.8860  -12.5980 C   0  0  0  0  0  3  0  0  0  0  0  0
    0.1390   16.0560  -12.6120 C   0  0  0  0  0  0  0  0  0  0  0  0
   -0.1350   16.9230  -11.6110 C   0  0  0  0  0  3  0  0  0  0  0  0
   -1.2600   17.7360  -11.6460 C   0  0  0  0  0  0  0  0  0  0  0  0
   -1.6850   18.8630  -10.3970 Cl  0  0  0  0  0  0  0  0  0  0  0  0
   -2.1590   17.6600  -12.7590 C   0  0  0  0  0  3  0  0  0  0  0  0
   -1.8670   16.7910  -13.7530 C   0  0  0  0  0  3  0  0  0  0  0  0
   -0.7550   16.0240  -13.6630 C   0  0  0  0  0  3  0  0  0  0  0  0
   -0.4810    9.5600  -13.6560 C   0  0  0  0  0  0  0  0  0  0  0  0
   -1.4280    8.5440  -13.8340 N   0  0  0  0  0  0  0  0  0  0  0  0
   -2.7020    8.7040  -13.9130 C   0  0  0  0  0  3  0  0  0  0  0  0
   -3.2980    9.9710  -13.8130 C   0  0  0  0  0  3  0  0  0  0  0  0
   -2.3650   10.9860  -13.6430 C   0  0  0  0  0  3  0  0  0  0  0  0
   -1.1070   10.7630  -13.5770 N   0  0  0  0  0  0  0  0  0  0  0  0
  1  2  2  0  0  0  0
  3  1  1  0  0  0  0
  3  8  1  0  0  0  0
  4  3  1  0  0  0  0
  5  4  1  0  0  0  0
  5  6  1  0  0  0  0
  6  7  1  0  0  0  0
  8  7  1  0  0  0  0
  9  1  1  0  0  0  0
  9 13  2  0  0  0  0
 10  9  1  0  0  0  0
 11 10  2  0  0  0  0
 11 12  1  0  0  0  0
 12 14  1  0  0  0  0
 12 13  1  0  0  0  0
 14 15  1  0  0  0  0
 16 15  2  0  0  0  0
 16 17  1  0  0  0  0
 18 16  1  0  0  0  0
 19 20  1  0  0  0  0
 19 18  2  0  0  0  0
 20 14  2  0  0  0  0
 21 26  1  0  0  0  0
 21  6  1  0  0  0  0
 22 21  2  0  0  0  0
 23 22  1  0  0  0  0
 23 24  2  0  0  0  0
 24 25  1  0  0  0  0
 25 26  2  0  0  0  0
M  END
>  <Pose>
1

>  <Score>
-8.490

$$$$
