/Users/jonathanwahrer/Desktop/Msc/3_Semester/Drug_Design_Praktikum/waehrer_HTS_screening/HTS_experiment/out/docking_results/vina_output/6q9y/1971_docked.pdbqt
 OpenBabel03222220333D

 22 25  0  0  1  0  0  0  0  0999 V2000
   -1.5880    8.7910  -13.5610 N   0  0  0  0  0  0  0  0  0  0  0  0
   -0.8330   10.0160  -13.5110 C   0  0  0  0  0  0  0  0  0  0  0  0
   -1.2020   11.1010  -14.0210 O   0  0  0  0  0  0  0  0  0  0  0  0
    0.4130    9.7980  -12.7810 C   0  0  2  0  0  3  0  0  0  0  0  0
    1.6490    9.7800  -13.6190 C   0  0  1  0  0  0  0  0  0  0  0  0
    2.4830    8.9650  -12.8130 O   0  0  0  0  0  0  0  0  0  0  0  0
    1.6650    7.8060  -12.8520 C   0  0  1  0  0  3  0  0  0  0  0  0
    0.3740    8.3440  -12.2850 C   0  0  2  0  0  3  0  0  0  0  0  0
   -0.7760    7.7720  -12.9880 C   0  0  0  0  0  0  0  0  0  0  0  0
   -1.0350    6.5480  -13.0830 O   0  0  0  0  0  0  0  0  0  0  0  0
    1.4860    7.6500  -14.3110 C   0  0  0  0  0  2  0  0  0  0  0  0
    1.5120    8.9090  -14.8070 C   0  0  0  0  0  2  0  0  0  0  0  0
   -2.8960    8.5830  -14.0790 C   0  0  0  0  0  0  0  0  0  0  0  0
   -3.9510    9.4310  -13.7830 C   0  0  0  0  0  3  0  0  0  0  0  0
   -5.2190    9.2290  -14.2870 C   0  0  0  0  0  0  0  0  0  0  0  0
   -6.5410   10.3090  -13.9030 Cl  0  0  0  0  0  0  0  0  0  0  0  0
   -5.4890    8.1600  -15.1170 C   0  0  0  0  0  3  0  0  0  0  0  0
   -4.4440    7.3100  -15.4180 C   0  0  0  0  0  3  0  0  0  0  0  0
   -3.1680    7.5150  -14.9100 C   0  0  0  0  0  3  0  0  0  0  0  0
    2.2590   11.1110  -13.8830 C   0  0  0  0  0  2  0  0  0  0  0  0
    1.6520   12.0640  -13.0750 O   0  0  0  0  0  0  0  0  0  0  0  0
    1.6960   11.7910  -12.1300 H   0  0  0  0  0  0  0  0  0  0  0  0
  1  2  1  0  0  0  0
  1  9  1  0  0  0  0
  3  2  2  0  0  0  0
  4  2  1  6  0  0  0
  4  8  1  0  0  0  0
  5 20  1  6  0  0  0
  5  6  1  0  0  0  0
  5  4  1  0  0  0  0
  7 11  1  6  0  0  0
  7  6  1  0  0  0  0
  7  8  1  0  0  0  0
  8  9  1  6  0  0  0
 10  9  2  0  0  0  0
 12 11  1  0  0  0  0
 12  5  1  0  0  0  0
 13 14  1  0  0  0  0
 13  1  1  0  0  0  0
 15 16  1  0  0  0  0
 15 14  2  0  0  0  0
 17 15  1  0  0  0  0
 18 17  2  0  0  0  0
 18 19  1  0  0  0  0
 19 13  2  0  0  0  0
 20 21  1  0  0  0  0
 21 22  1  0  0  0  0
M  END
>  <Pose>
1

>  <Score>
-7.415

$$$$
