/Users/jonathanwahrer/Desktop/Msc/3_Semester/Drug_Design_Praktikum/waehrer_HTS_screening/HTS_experiment/out/docking_results/vina_output/6q9y/1973_docked.pdbqt
 OpenBabel03222220333D

 24 27  0  0  1  0  0  0  0  0999 V2000
    3.3620    4.3810  -12.2200 Cl  0  0  0  0  0  0  0  0  0  0  0  0
    2.1140    5.6070  -12.4380 C   0  0  0  0  0  0  0  0  0  0  0  0
    2.4010    6.8610  -12.9370 C   0  0  0  0  0  2  0  0  0  0  0  0
    1.4560    7.8160  -13.1120 N   0  0  0  0  0  0  0  0  0  0  0  0
    0.1650    7.5960  -12.8050 C   0  0  0  0  0  0  0  0  0  0  0  0
   -0.7970    8.5420  -12.9730 N   0  0  0  0  0  0  0  0  0  0  0  0
   -0.5260    9.7670  -13.4590 C   0  0  0  0  0  0  0  0  0  0  0  0
    0.8050   10.0110  -13.7820 C   0  0  1  0  0  3  0  0  0  0  0  0
    1.1070   11.3630  -14.3190 C   0  0  0  0  0  2  0  0  0  0  0  0
    0.3890   12.2950  -13.4410 N   0  0  0  0  0  0  0  0  0  0  0  0
   -1.0430   12.1930  -13.3940 C   0  0  0  0  0  2  0  0  0  0  0  0
   -1.5670   10.8090  -13.6500 C   0  0  0  0  0  2  0  0  0  0  0  0
    1.0940   13.2450  -12.6700 C   0  0  0  0  0  0  0  0  0  0  0  0
    2.3670   13.2430  -12.7720 O   0  0  0  0  0  0  0  0  0  0  0  0
    1.7580    9.0330  -13.6010 C   0  0  0  0  0  0  0  0  0  0  0  0
    2.9700    9.2810  -13.9050 O   0  0  0  0  0  0  0  0  0  0  0  0
   -0.1440    6.3430  -12.3010 C   0  0  0  0  0  3  0  0  0  0  0  0
    0.7990    5.3540  -12.1140 C   0  0  0  0  0  3  0  0  0  0  0  0
    0.4210   14.2150  -11.7770 C   0  0  0  0  0  3  0  0  0  0  0  0
   -0.4310   15.2030  -12.5440 C   0  0  0  0  0  2  0  0  0  0  0  0
    0.3880   15.5940  -13.7670 C   0  0  0  0  0  2  0  0  0  0  0  0
    1.7360   15.7020  -13.4280 O   0  0  0  0  0  0  0  0  0  0  0  0
    1.8980   16.1290  -12.1030 C   0  0  0  0  0  2  0  0  0  0  0  0
    1.5130   15.0570  -11.1000 C   0  0  0  0  0  2  0  0  0  0  0  0
  2  1  1  0  0  0  0
  2 18  2  0  0  0  0
  3  2  1  0  0  0  0
  4  3  1  0  0  0  0
  4  5  1  0  0  0  0
  5 17  2  0  0  0  0
  6  5  1  0  0  0  0
  7  6  2  0  0  0  0
  8  9  1  1  0  0  0
  8 15  1  0  0  0  0
  8  7  1  0  0  0  0
  9 10  1  0  0  0  0
 10 11  1  0  0  0  0
 10 13  1  0  0  0  0
 12  7  1  0  0  0  0
 12 11  1  0  0  0  0
 13 19  1  0  0  0  0
 14 13  2  0  0  0  0
 15  4  1  0  0  0  0
 16 15  2  0  0  0  0
 17 18  1  0  0  0  0
 19 24  1  0  0  0  0
 20 19  1  0  0  0  0
 21 22  1  0  0  0  0
 21 20  1  0  0  0  0
 22 23  1  0  0  0  0
 23 24  1  0  0  0  0
M  END
>  <Pose>
1

>  <Score>
-7.813

$$$$
