/Users/jonathanwahrer/Desktop/Msc/3_Semester/Drug_Design_Praktikum/waehrer_HTS_screening/HTS_experiment/out/docking_results/vina_output/6q9y/1982_docked.pdbqt
 OpenBabel03222220333D

 25 28  0  0  0  0  0  0  0  0999 V2000
    2.8040    4.9020  -12.0660 Cl  0  0  0  0  0  0  0  0  0  0  0  0
    1.5610    6.0560  -12.4990 C   0  0  0  0  0  0  0  0  0  0  0  0
    1.7990    7.4130  -12.5800 C   0  0  0  0  0  3  0  0  0  0  0  0
    0.8290    8.3340  -12.9190 C   0  0  0  0  0  0  0  0  0  0  0  0
   -0.4390    7.8560  -13.1880 C   0  0  0  0  0  0  0  0  0  0  0  0
   -0.6900    6.5020  -13.1120 C   0  0  0  0  0  3  0  0  0  0  0  0
    0.2810    5.5810  -12.7720 C   0  0  0  0  0  3  0  0  0  0  0  0
   -1.4950    8.8240  -13.5550 C   0  0  0  0  0  0  0  0  0  0  0  0
   -2.7160    8.6540  -13.8450 N   0  0  0  0  0  0  0  0  0  0  0  0
   -3.4170    9.8840  -14.1490 C   0  0  0  0  0  3  0  0  0  0  0  0
   -2.3880   10.9570  -14.0010 C   0  0  0  0  0  3  0  0  0  0  0  0
   -1.2010   10.2130  -13.6250 N   0  0  0  0  0  0  0  0  0  0  0  0
    0.1350   10.6230  -13.3320 C   0  0  0  0  0  0  0  0  0  0  0  0
    0.6940   11.8470  -13.3180 N   0  0  0  0  0  0  0  0  0  0  0  0
    1.9720   11.7780  -12.9890 N   0  0  0  0  0  0  0  0  0  0  0  0
    2.2140   10.4590  -12.7910 C   0  0  0  0  0  0  0  0  0  0  0  0
    3.3340   10.0110  -12.4620 O   0  0  0  0  0  0  0  0  0  0  0  0
    1.1030    9.7320  -12.9960 N   0  0  0  0  0  0  0  0  0  0  0  0
    2.9100   12.8780  -12.8670 C   0  0  0  0  0  2  0  0  0  0  0  0
    2.7160   13.5560  -11.5030 C   0  0  0  0  0  2  0  0  0  0  0  0
    1.7860   14.7060  -11.6330 C   0  0  0  0  0  0  0  0  0  0  0  0
    2.1480   15.9080  -11.6900 O   0  0  0  0  0  0  0  0  0  0  0  0
    0.3960   14.4300  -11.6960 N   0  0  0  0  0  0  0  0  0  0  0  0
   -0.0660   13.6840  -11.1440 H   0  0  0  0  0  0  0  0  0  0  0  0
   -0.1850   15.0110  -12.3340 H   0  0  0  0  0  0  0  0  0  0  0  0
  2  1  1  0  0  0  0
  3  2  1  0  0  0  0
  4  3  2  0  0  0  0
  5  6  2  0  0  0  0
  5  4  1  0  0  0  0
  6  7  1  0  0  0  0
  7  2  2  0  0  0  0
  8  5  1  0  0  0  0
  9  8  2  0  0  0  0
 10 11  2  0  0  0  0
 10  9  1  0  0  0  0
 11 12  1  0  0  0  0
 12  8  1  0  0  0  0
 12 13  1  0  0  0  0
 13 14  2  0  0  0  0
 13 18  1  0  0  0  0
 14 15  1  0  0  0  0
 15 19  1  0  0  0  0
 15 16  1  0  0  0  0
 16 17  2  0  0  0  0
 18  4  1  0  0  0  0
 18 16  1  0  0  0  0
 19 20  1  0  0  0  0
 21 20  1  0  0  0  0
 22 21  2  0  0  0  0
 23 21  1  0  0  0  0
 23 24  1  0  0  0  0
 25 23  1  0  0  0  0
M  END
>  <Pose>
1

>  <Score>
-8.340

$$$$
