/Users/jonathanwahrer/Desktop/Msc/3_Semester/Drug_Design_Praktikum/waehrer_HTS_screening/HTS_experiment/out/docking_results/vina_output/6q9y/1991_docked.pdbqt
 OpenBabel03222220333D

 31 34  0  0  1  0  0  0  0  0999 V2000
    5.4710    6.1730  -13.7650 Cl  0  0  0  0  0  0  0  0  0  0  0  0
    4.2130    7.3730  -13.9350 C   0  0  0  0  0  0  0  0  0  0  0  0
    3.1100    7.3640  -13.1110 C   0  0  0  0  0  3  0  0  0  0  0  0
    2.1320    8.3130  -13.2590 C   0  0  0  0  0  0  0  0  0  0  0  0
    2.2620    9.2920  -14.2510 C   0  0  0  0  0  0  0  0  0  0  0  0
    3.3690    9.3080  -15.0850 C   0  0  0  0  0  3  0  0  0  0  0  0
    4.3220    8.3430  -14.9060 C   0  0  0  0  0  3  0  0  0  0  0  0
    1.3670   10.3140  -14.5280 O   0  0  0  0  0  0  0  0  0  0  0  0
    0.4150   10.8850  -13.6620 C   0  0  0  0  0  0  0  0  0  0  0  0
   -0.6480    9.9140  -13.2640 C   0  0  0  0  0  2  0  0  0  0  0  0
   -0.1920    8.5870  -12.9800 N   0  0  0  0  0  0  0  0  0  0  0  0
    1.0070    8.1740  -12.2990 C   0  0  0  0  0  2  0  0  0  0  0  0
   -1.0110    7.4910  -13.4180 C   0  0  0  0  0  0  0  0  0  0  0  0
   -0.5980    6.3340  -13.1560 O   0  0  0  0  0  0  0  0  0  0  0  0
    1.1220   11.5030  -12.4660 C   0  0  0  0  0  2  0  0  0  0  0  0
    1.4410   12.9620  -12.7410 C   0  0  0  0  0  2  0  0  0  0  0  0
    0.3050   13.7420  -12.8410 O   0  0  0  0  0  0  0  0  0  0  0  0
   -0.7750   12.9910  -13.2900 C   0  0  0  0  0  2  0  0  0  0  0  0
   -0.2870   12.0460  -14.3710 C   0  0  0  0  0  2  0  0  0  0  0  0
   -2.2660    7.7080  -14.1350 C   0  0  0  0  0  2  0  0  0  0  0  0
   -2.9150    6.5750  -14.6870 N   0  0  0  0  0  0  0  0  0  0  0  0
   -3.3930    6.8290  -16.0480 C   0  0  0  0  0  2  0  0  0  0  0  0
   -4.3730    7.9410  -15.9980 C   0  0  0  0  0  2  0  0  0  0  0  0
   -5.4170    7.8630  -14.9350 C   0  0  1  0  0  3  0  0  0  0  0  0
   -5.2140    6.8720  -13.8580 C   0  0  0  0  0  2  0  0  0  0  0  0
   -4.0020    6.0230  -13.9160 C   0  0  0  0  0  2  0  0  0  0  0  0
   -5.7250    9.2010  -14.3750 C   0  0  0  0  0  0  0  0  0  0  0  0
   -5.0710    9.6220  -13.3990 O   0  0  0  0  0  0  0  0  0  0  0  0
   -6.7520    9.9860  -14.9430 N   0  0  0  0  0  0  0  0  0  0  0  0
   -6.4280   10.8110  -15.5280 H   0  0  0  0  0  0  0  0  0  0  0  0
   -7.7630    9.8350  -14.8440 H   0  0  0  0  0  0  0  0  0  0  0  0
  2  1  1  0  0  0  0
  2  3  1  0  0  0  0
  4  3  2  0  0  0  0
  4 12  1  0  0  0  0
  5  4  1  0  0  0  0
  6  7  1  0  0  0  0
  6  5  2  0  0  0  0
  7  2  2  0  0  0  0
  8  5  1  0  0  0  0
  8  9  1  0  0  0  0
  9 10  1  0  0  0  0
  9 15  1  0  0  0  0
 10 11  1  0  0  0  0
 11 12  1  0  0  0  0
 13 14  2  0  0  0  0
 13 11  1  0  0  0  0
 16 15  1  0  0  0  0
 17 16  1  0  0  0  0
 18 17  1  0  0  0  0
 19  9  1  0  0  0  0
 19 18  1  0  0  0  0
 20 13  1  0  0  0  0
 21 20  1  0  0  0  0
 21 26  1  0  0  0  0
 22 23  1  0  0  0  0
 22 21  1  0  0  0  0
 23 24  1  0  0  0  0
 24 27  1  1  0  0  0
 24 25  1  0  0  0  0
 26 25  1  0  0  0  0
 27 28  2  0  0  0  0
 29 31  1  0  0  0  0
 29 27  1  0  0  0  0
 30 29  1  0  0  0  0
M  END
>  <Pose>
1

>  <Score>
-7.992

$$$$
