/Users/jonathanwahrer/Desktop/Msc/3_Semester/Drug_Design_Praktikum/waehrer_HTS_screening/HTS_experiment/out/docking_results/vina_output/6q9y/2003_docked.pdbqt
 OpenBabel03222220343D

 28 31  0  0  0  0  0  0  0  0999 V2000
    1.1070   13.6270  -12.4240 N   0  0  0  0  0  0  0  0  0  0  0  0
    2.1680   13.0790  -13.2120 C   0  0  0  0  0  2  0  0  0  0  0  0
    2.0990   11.5810  -13.3480 C   0  0  0  0  0  2  0  0  0  0  0  0
    0.7390   11.1000  -13.4400 N   0  0  0  0  0  0  0  0  0  0  0  0
   -0.4120   11.9630  -13.4380 C   0  0  0  0  0  3  0  0  0  0  0  0
   -0.2070   13.3080  -12.8540 C   0  0  0  0  0  3  0  0  0  0  0  0
    0.5300    9.6970  -13.5400 C   0  0  0  0  0  0  0  0  0  0  0  0
   -0.6460    9.2090  -13.6250 O   0  0  0  0  0  0  0  0  0  0  0  0
    1.6600    8.7680  -13.5480 C   0  0  0  0  0  0  0  0  0  0  0  0
    2.8800    9.0650  -14.1200 C   0  0  0  0  0  3  0  0  0  0  0  0
    3.8760    8.1600  -14.0880 N   0  0  0  0  0  0  0  0  0  0  0  0
    3.7560    6.9480  -13.5170 C   0  0  0  0  0  0  0  0  0  0  0  0
    2.5730    6.6430  -12.9540 N   0  0  0  0  0  0  0  0  0  0  0  0
    4.8070    6.0390  -13.5040 C   0  0  0  0  0  3  0  0  0  0  0  0
    2.4330    5.4330  -12.3760 C   0  0  0  0  0  3  0  0  0  0  0  0
    1.5520    7.5210  -12.9650 C   0  0  0  0  0  0  0  0  0  0  0  0
    3.4580    4.5090  -12.3480 C   0  0  0  0  0  3  0  0  0  0  0  0
    4.6850    4.7920  -12.9170 C   0  0  0  0  0  3  0  0  0  0  0  0
    0.4480    7.2360  -12.4400 O   0  0  0  0  0  0  0  0  0  0  0  0
    1.3440   15.2320  -11.9390 S   0  0  0  0  0  0  0  0  0  0  0  0
    1.4600   15.3360  -10.4670 O   0  0  0  0  0  0  0  0  0  0  0  0
    2.6050   15.7540  -12.5890 O   0  0  0  0  0  0  0  0  0  0  0  0
   -0.0240   16.2050  -12.5060 C   0  0  0  0  0  0  0  0  0  0  0  0
   -0.9330   17.3840  -11.6770 S   0  0  0  0  0  0  0  0  0  0  0  0
   -2.0210   17.8100  -12.9190 C   0  0  0  0  0  0  0  0  0  0  0  0
   -1.6350   17.0070  -13.9560 C   0  0  0  0  0  3  0  0  0  0  0  0
   -3.3420   18.9960  -12.9120 Cl  0  0  0  0  0  0  0  0  0  0  0  0
   -0.6070   16.1790  -13.7470 C   0  0  0  0  0  3  0  0  0  0  0  0
  1 20  1  0  0  0  0
  2  1  1  0  0  0  0
  3  2  1  0  0  0  0
  4  5  1  0  0  0  0
  4  3  1  0  0  0  0
  5  6  2  0  0  0  0
  6  1  1  0  0  0  0
  7  4  1  0  0  0  0
  8  7  2  0  0  0  0
  9  7  1  0  0  0  0
  9 16  1  0  0  0  0
 10 11  1  0  0  0  0
 10  9  2  0  0  0  0
 11 12  2  0  0  0  0
 12 14  1  0  0  0  0
 12 13  1  0  0  0  0
 13 15  1  0  0  0  0
 14 18  2  0  0  0  0
 15 17  2  0  0  0  0
 16 13  1  0  0  0  0
 16 19  2  0  0  0  0
 18 17  1  0  0  0  0
 20 21  2  0  0  0  0
 22 20  2  0  0  0  0
 23 20  1  0  0  0  0
 23 24  1  0  0  0  0
 25 27  1  0  0  0  0
 25 24  1  0  0  0  0
 26 28  1  0  0  0  0
 26 25  2  0  0  0  0
 28 23  2  0  0  0  0
M  END
>  <Pose>
1

>  <Score>
-9.111

$$$$
