/Users/jonathanwahrer/Desktop/Msc/3_Semester/Drug_Design_Praktikum/waehrer_HTS_screening/HTS_experiment/out/docking_results/vina_output/6q9y/2004_docked.pdbqt
 OpenBabel03222220343D

 29 32  0  0  1  0  0  0  0  0999 V2000
    1.9030   10.9660  -13.1360 S   0  0  0  0  0  0  0  0  0  0  0  0
    2.6310   11.0150  -14.4710 O   0  0  0  0  0  0  0  0  0  0  0  0
    2.9380   10.3860  -12.1740 O   0  0  0  0  0  0  0  0  0  0  0  0
    0.5770    9.9460  -13.1960 N   0  0  0  0  0  0  0  0  0  0  0  0
    0.8030    8.5740  -13.3260 C   0  0  0  0  0  2  0  0  0  0  0  0
   -0.4640    7.7370  -13.0970 C   0  0  0  0  0  2  0  0  0  0  0  0
   -1.6220    8.3710  -13.6510 N   0  0  0  0  0  0  0  0  0  0  0  0
   -1.7950    9.7900  -13.4260 C   0  0  0  0  0  2  0  0  0  0  0  0
   -2.5540    7.6300  -14.3880 C   0  0  0  0  0  0  0  0  0  0  0  0
   -0.5410   10.4650  -13.9470 C   0  0  0  0  0  2  0  0  0  0  0  0
   -2.3820    6.3980  -14.5710 O   0  0  0  0  0  0  0  0  0  0  0  0
   -3.7790    8.2490  -14.9860 C   0  0  0  0  0  3  0  0  0  0  0  0
   -4.9720    8.2460  -14.0610 C   0  0  0  0  0  2  0  0  0  0  0  0
   -5.3570    6.9000  -14.6690 C   0  0  0  0  0  2  0  0  0  0  0  0
   -4.5100    7.2840  -15.8850 C   0  0  0  0  0  2  0  0  0  0  0  0
    1.6060   12.6110  -12.6170 C   0  0  0  0  0  0  0  0  0  0  0  0
    0.3470   13.1860  -12.8800 C   0  0  0  0  0  3  0  0  0  0  0  0
    0.0730   14.4940  -12.5490 C   0  0  0  0  0  0  0  0  0  0  0  0
    1.0000   15.3150  -11.9500 C   0  0  0  0  0  0  0  0  0  0  0  0
   -1.1830   15.0390  -12.8200 O   0  0  0  0  0  0  0  0  0  0  0  0
    2.2280   14.7590  -11.6900 C   0  0  0  0  0  3  0  0  0  0  0  0
    0.6560   16.6530  -11.6380 N   0  0  0  0  0  0  0  0  0  0  0  0
    2.5270   13.4280  -12.0170 C   0  0  0  0  0  0  0  0  0  0  0  0
    4.0880   12.7730  -11.5850 Cl  0  0  0  0  0  0  0  0  0  0  0  0
   -0.6270   17.1940  -11.9240 C   0  0  0  0  0  0  0  0  0  0  0  0
    1.3650   17.2720  -11.1820 H   0  0  0  0  0  0  0  0  0  0  0  0
   -1.0750   18.2580  -11.4530 O   0  0  0  0  0  0  0  0  0  0  0  0
   -1.4760   16.4080  -12.8580 C   0  0  1  0  0  3  0  0  0  0  0  0
   -1.2970   16.8920  -14.2800 C   0  0  0  0  0  1  0  0  0  0  0  0
  1 16  1  0  0  0  0
  1  3  2  0  0  0  0
  2  1  2  0  0  0  0
  4  1  1  0  0  0  0
  5  4  1  0  0  0  0
  5  6  1  0  0  0  0
  7  8  1  0  0  0  0
  7  6  1  0  0  0  0
  9  7  1  0  0  0  0
 10  8  1  0  0  0  0
 10  4  1  0  0  0  0
 11  9  2  0  0  0  0
 12  9  1  0  0  0  0
 12 13  1  0  0  0  0
 14 13  1  0  0  0  0
 15 12  1  0  0  0  0
 15 14  1  0  0  0  0
 16 23  1  0  0  0  0
 17 16  2  0  0  0  0
 17 18  1  0  0  0  0
 18 19  2  0  0  0  0
 19 21  1  0  0  0  0
 19 22  1  0  0  0  0
 20 18  1  0  0  0  0
 22 26  1  0  0  0  0
 23 21  2  0  0  0  0
 23 24  1  0  0  0  0
 25 22  1  0  0  0  0
 25 27  2  0  0  0  0
 28 29  1  6  0  0  0
 28 20  1  0  0  0  0
 28 25  1  0  0  0  0
M  END
>  <Pose>
1

>  <Score>
-9.300

$$$$
