/Users/jonathanwahrer/Desktop/Msc/3_Semester/Drug_Design_Praktikum/waehrer_HTS_screening/HTS_experiment/out/docking_results/vina_output/6q9y/2012_docked.pdbqt
 OpenBabel03222220343D

 25 28  0  0  1  0  0  0  0  0999 V2000
    2.1520   11.8360  -12.9840 N   0  0  0  0  0  0  0  0  0  0  0  0
    3.4460   11.2470  -13.0340 C   0  0  0  0  0  0  0  0  0  0  0  0
    4.4200   11.6310  -12.3640 O   0  0  0  0  0  0  0  0  0  0  0  0
    3.4340   10.1310  -13.9950 C   0  0  1  0  0  3  0  0  0  0  0  0
    4.1860    9.0360  -13.7130 O   0  0  0  0  0  0  0  0  0  0  0  0
    3.4080    8.0030  -14.2040 N   0  0  0  0  0  0  0  0  0  0  0  0
    2.0400    8.3040  -13.9190 C   0  0  0  0  0  0  0  0  0  0  0  0
    2.0380    9.6250  -13.7800 C   0  0  0  0  0  0  0  0  0  0  0  0
    1.2480   10.8050  -13.4610 C   0  0  0  0  0  0  0  0  0  0  0  0
   -0.0010   10.8660  -13.5970 O   0  0  0  0  0  0  0  0  0  0  0  0
    3.7910    7.1790  -14.6950 H   0  0  0  0  0  0  0  0  0  0  0  0
    1.7250   13.1260  -12.5630 C   0  0  0  0  0  0  0  0  0  0  0  0
    0.6110   13.7380  -13.0880 C   0  0  0  0  0  3  0  0  0  0  0  0
    0.2680   15.0000  -12.6120 C   0  0  0  0  0  0  0  0  0  0  0  0
   -1.1450   15.8380  -13.2480 Cl  0  0  0  0  0  0  0  0  0  0  0  0
    1.0330   15.6120  -11.6410 C   0  0  0  0  0  3  0  0  0  0  0  0
    2.1530   14.9930  -11.1120 C   0  0  0  0  0  3  0  0  0  0  0  0
    2.4950   13.7580  -11.5730 C   0  0  0  0  0  3  0  0  0  0  0  0
    0.9070    7.4030  -13.8520 C   0  0  0  0  0  0  0  0  0  0  0  0
   -0.1910    7.5370  -14.7060 C   0  0  0  0  0  3  0  0  0  0  0  0
   -1.0980    6.5900  -14.4260 N   0  0  0  0  0  0  0  0  0  0  0  0
   -0.6240    5.8510  -13.4210 N   0  0  0  0  0  0  0  0  0  0  0  0
   -2.3930    6.3420  -15.0520 C   0  0  0  0  0  1  0  0  0  0  0  0
    0.5890    6.3350  -13.0650 C   0  0  0  0  0  0  0  0  0  0  0  0
    1.4430    5.8020  -11.9740 C   0  0  0  0  0  1  0  0  0  0  0  0
  1 12  1  0  0  0  0
  2  1  1  0  0  0  0
  2  3  2  0  0  0  0
  4  8  1  1  0  0  0
  4  5  1  0  0  0  0
  4  2  1  0  0  0  0
  6  7  1  0  0  0  0
  6  5  1  0  0  0  0
  7 19  1  0  0  0  0
  7  8  2  0  0  0  0
  8  9  1  0  0  0  0
  9  1  1  0  0  0  0
 10  9  2  0  0  0  0
 11  6  1  0  0  0  0
 12 18  1  0  0  0  0
 13 14  1  0  0  0  0
 13 12  2  0  0  0  0
 14 16  2  0  0  0  0
 15 14  1  0  0  0  0
 16 17  1  0  0  0  0
 18 17  2  0  0  0  0
 19 24  1  0  0  0  0
 20 21  1  0  0  0  0
 20 19  2  0  0  0  0
 21 22  1  0  0  0  0
 22 24  2  0  0  0  0
 23 21  1  0  0  0  0
 24 25  1  0  0  0  0
M  END
>  <Pose>
1

>  <Score>
-8.774

$$$$
