/Users/jonathanwahrer/Desktop/Msc/3_Semester/Drug_Design_Praktikum/waehrer_HTS_screening/HTS_experiment/out/docking_results/vina_output/6q9y/2014_docked.pdbqt
 OpenBabel03222220343D

 26 29  0  0  0  0  0  0  0  0999 V2000
   -0.1980    7.3010  -12.9000 C   0  0  0  0  0  0  0  0  0  0  0  0
    1.0910    7.0050  -13.0450 N   0  0  0  0  0  0  0  0  0  0  0  0
    1.3450    5.7670  -12.5290 C   0  0  0  0  0  0  0  0  0  0  0  0
    0.1520    5.3240  -12.0690 N   0  0  0  0  0  0  0  0  0  0  0  0
   -0.7720    6.2220  -12.2820 N   0  0  0  0  0  0  0  0  0  0  0  0
    2.6420    5.4530  -12.6700 N   0  0  0  0  0  0  0  0  0  0  0  0
    3.2650    6.4580  -13.2740 C   0  0  0  0  0  0  0  0  0  0  0  0
    2.2880    7.4390  -13.5130 C   0  0  0  0  0  0  0  0  0  0  0  0
    2.6330    8.5760  -14.1310 N   0  0  0  0  0  0  0  0  0  0  0  0
    3.9320    8.7340  -14.5010 C   0  0  0  0  0  0  0  0  0  0  0  0
    4.2310    9.8230  -15.0830 O   0  0  0  0  0  0  0  0  0  0  0  0
    4.8940    7.8380  -14.2960 N   0  0  0  0  0  0  0  0  0  0  0  0
    4.5550    6.7030  -13.6840 C   0  0  0  0  0  0  0  0  0  0  0  0
    5.4260    5.8210  -13.4650 O   0  0  0  0  0  0  0  0  0  0  0  0
    6.2810    8.0870  -14.7280 C   0  0  0  0  0  1  0  0  0  0  0  0
    1.6800    9.6020  -14.4400 C   0  0  0  0  0  1  0  0  0  0  0  0
    3.2830    4.2260  -12.2430 C   0  0  0  0  0  1  0  0  0  0  0  0
   -1.0020    8.4610  -13.2680 C   0  0  0  0  0  0  0  0  0  0  0  0
   -0.5580    9.7510  -12.9890 C   0  0  0  0  0  3  0  0  0  0  0  0
   -1.2850   10.8310  -13.4070 C   0  0  0  0  0  0  0  0  0  0  0  0
   -0.6870   12.6150  -13.0300 Br  0  0  0  0  0  0  0  0  0  0  0  0
   -2.4710   10.7200  -14.1110 C   0  0  0  0  0  3  0  0  0  0  0  0
   -2.9010    9.4310  -14.3820 C   0  0  0  0  0  3  0  0  0  0  0  0
   -2.1840    8.3470  -13.9700 C   0  0  0  0  0  0  0  0  0  0  0  0
   -2.6120    7.0280  -14.2400 O   0  0  0  0  0  0  0  0  0  0  0  0
   -2.9240    6.6230  -15.5600 C   0  0  0  0  0  1  0  0  0  0  0  0
  1  5  2  0  0  0  0
  2  1  1  0  0  0  0
  2  3  1  0  0  0  0
  3  4  2  0  0  0  0
  5  4  1  0  0  0  0
  6  3  1  0  0  0  0
  6 17  1  0  0  0  0
  7  6  1  0  0  0  0
  8  7  2  0  0  0  0
  8  2  1  0  0  0  0
  9  8  1  0  0  0  0
 10 12  1  0  0  0  0
 10  9  1  0  0  0  0
 11 10  2  0  0  0  0
 12 13  1  0  0  0  0
 13 14  2  0  0  0  0
 13  7  1  0  0  0  0
 15 12  1  0  0  0  0
 16  9  1  0  0  0  0
 18 19  1  0  0  0  0
 18  1  1  0  0  0  0
 20 21  1  0  0  0  0
 20 19  2  0  0  0  0
 22 20  1  0  0  0  0
 23 22  2  0  0  0  0
 23 24  1  0  0  0  0
 24 18  2  0  0  0  0
 25 24  1  0  0  0  0
 26 25  1  0  0  0  0
M  END
>  <Pose>
1

>  <Score>
-7.774

$$$$
