/Users/jonathanwahrer/Desktop/Msc/3_Semester/Drug_Design_Praktikum/waehrer_HTS_screening/HTS_experiment/out/docking_results/vina_output/6q9y/2020_docked.pdbqt
 OpenBabel03222220343D

 22 24  0  0  1  0  0  0  0  0999 V2000
    1.8110    9.5530  -14.6440 C   0  0  2  0  0  3  0  0  0  0  0  0
    2.6520    8.3580  -14.1160 C   0  0  2  0  0  3  0  0  0  0  0  0
    2.1830    8.4110  -12.6490 C   0  0  0  0  0  0  0  0  0  0  0  0
    1.8060    7.4380  -12.0220 O   0  0  0  0  0  0  0  0  0  0  0  0
    2.2600    9.7630  -12.1400 N   0  0  0  0  0  0  0  0  0  0  0  0
    3.1520   10.6450  -12.9150 C   0  0  1  0  0  0  0  0  0  0  0  0
    4.3560    9.8240  -13.1000 N   0  0  0  0  0  0  0  0  0  0  0  0
    4.1000    8.7020  -13.9680 C   0  0  0  0  0  0  0  0  0  0  0  0
    4.9950    8.0610  -14.5490 O   0  0  0  0  0  0  0  0  0  0  0  0
    2.5250   10.7580  -14.3320 C   0  0  0  0  0  2  0  0  0  0  0  0
    3.4140   11.9600  -12.3260 C   0  0  0  0  0  1  0  0  0  0  0  0
    1.7350   10.0980  -11.3280 H   0  0  0  0  0  0  0  0  0  0  0  0
    5.2570   10.0360  -12.6570 H   0  0  0  0  0  0  0  0  0  0  0  0
    0.4780    9.2590  -14.1310 C   0  0  0  0  0  0  0  0  0  0  0  0
    0.0160    7.9460  -14.2860 C   0  0  0  0  0  3  0  0  0  0  0  0
   -1.2790    7.5850  -13.9090 C   0  0  0  0  0  0  0  0  0  0  0  0
   -1.8750    5.7940  -14.1460 Br  0  0  0  0  0  0  0  0  0  0  0  0
   -2.1380    8.4920  -13.3760 C   0  0  0  0  0  3  0  0  0  0  0  0
   -1.7040    9.7780  -13.2190 C   0  0  0  0  0  3  0  0  0  0  0  0
   -0.4240   10.1560  -13.5850 C   0  0  0  0  0  0  0  0  0  0  0  0
    0.0450   11.4300  -13.4300 O   0  0  0  0  0  0  0  0  0  0  0  0
   -0.8510   12.4810  -13.1890 C   0  0  0  0  0  1  0  0  0  0  0  0
  1 10  1  0  0  0  0
  1 14  1  1  0  0  0
  1  2  1  0  0  0  0
  2  8  1  1  0  0  0
  2  3  1  0  0  0  0
  3  5  1  0  0  0  0
  3  4  2  0  0  0  0
  5 12  1  0  0  0  0
  6 11  1  1  0  0  0
  6  5  1  0  0  0  0
  7  6  1  0  0  0  0
  7 13  1  0  0  0  0
  8  7  1  0  0  0  0
  9  8  2  0  0  0  0
 10  6  1  0  0  0  0
 14 20  1  0  0  0  0
 15 14  2  0  0  0  0
 15 16  1  0  0  0  0
 16 18  2  0  0  0  0
 17 16  1  0  0  0  0
 18 19  1  0  0  0  0
 20 21  1  0  0  0  0
 20 19  2  0  0  0  0
 21 22  1  0  0  0  0
M  END
>  <Pose>
1

>  <Score>
-7.203

$$$$
