/Users/jonathanwahrer/Desktop/Msc/3_Semester/Drug_Design_Praktikum/waehrer_HTS_screening/HTS_experiment/out/docking_results/vina_output/6q9y/2028_docked.pdbqt
 OpenBabel03222220343D

 31 34  0  0  1  0  0  0  0  0999 V2000
   -2.6110    3.8170  -12.8890 Cl  0  0  0  0  0  0  0  0  0  0  0  0
   -2.3100    5.4730  -13.4100 C   0  0  0  0  0  0  0  0  0  0  0  0
   -1.1320    6.1020  -12.9670 C   0  0  0  0  0  0  0  0  0  0  0  0
   -0.9000    7.3810  -13.3770 C   0  0  0  0  0  0  0  0  0  0  0  0
   -1.7880    8.0600  -14.1990 C   0  0  0  0  0  3  0  0  0  0  0  0
   -2.9330    7.4200  -14.6150 C   0  0  0  0  0  0  0  0  0  0  0  0
   -3.2040    6.1260  -14.2290 C   0  0  0  0  0  3  0  0  0  0  0  0
   -3.8780    8.1800  -15.5050 C   0  0  0  0  0  1  0  0  0  0  0  0
    0.4580    7.7620  -12.8800 C   0  0  2  0  0  0  0  0  0  0  0  0
    0.5880    9.1000  -12.4590 N   0  0  0  0  0  0  0  0  0  0  0  0
    0.9640    9.8640  -13.6140 C   0  0  2  0  0  3  0  0  0  0  0  0
    1.3100    8.9440  -14.7130 C   0  0  2  0  0  3  0  0  0  0  0  0
    1.4810    7.6210  -13.9620 C   0  0  1  0  0  3  0  0  0  0  0  0
    2.8500    7.7450  -13.4960 C   0  0  0  0  0  0  0  0  0  0  0  0
    3.4320    7.4180  -12.4380 O   0  0  0  0  0  0  0  0  0  0  0  0
    3.5540    8.3950  -14.5870 N   0  0  0  0  0  0  0  0  0  0  0  0
    2.6050    9.1150  -15.3600 C   0  0  0  0  0  0  0  0  0  0  0  0
    2.8610    9.7580  -16.3870 O   0  0  0  0  0  0  0  0  0  0  0  0
    0.7350    6.7590  -11.8540 C   0  0  0  0  0  0  0  0  0  0  0  0
    1.5840    6.7410  -10.9080 O   0  0  0  0  0  0  0  0  0  0  0  0
   -0.1450    5.6750  -12.0360 N   0  0  0  0  0  0  0  0  0  0  0  0
   -0.2820    9.4780  -12.0130 H   0  0  0  0  0  0  0  0  0  0  0  0
   -0.1310    4.7180  -11.6010 H   0  0  0  0  0  0  0  0  0  0  0  0
    2.0030   10.9200  -13.2900 C   0  0  2  0  0  3  0  0  0  0  0  0
    2.6140   10.6200  -11.9610 C   0  0  0  0  0  1  0  0  0  0  0  0
    1.6070   12.2080  -13.4980 O   0  0  0  0  0  0  0  0  0  0  0  0
    1.3410   12.6960  -12.6780 H   0  0  0  0  0  0  0  0  0  0  0  0
    4.9600    8.3450  -14.8890 C   0  0  0  0  0  2  0  0  0  0  0  0
    5.7100    7.2180  -14.2830 C   0  0  0  0  0  2  0  0  0  0  0  0
    7.0560    7.3570  -14.1290 O   0  0  0  0  0  0  0  0  0  0  0  0
    7.5220    7.2010  -12.8400 C   0  0  0  0  0  1  0  0  0  0  0  0
  2  3  1  0  0  0  0
  2  1  1  0  0  0  0
  3 21  1  0  0  0  0
  4  3  2  0  0  0  0
  5  4  1  0  0  0  0
  6  7  1  0  0  0  0
  6  5  2  0  0  0  0
  7  2  2  0  0  0  0
  8  6  1  0  0  0  0
  9  4  1  6  0  0  0
  9 10  1  0  0  0  0
  9 19  1  0  0  0  0
 10 22  1  0  0  0  0
 11 24  1  1  0  0  0
 11 10  1  0  0  0  0
 12 17  1  1  0  0  0
 12 13  1  0  0  0  0
 12 11  1  0  0  0  0
 13 14  1  1  0  0  0
 13  9  1  0  0  0  0
 14 15  2  0  0  0  0
 16 14  1  0  0  0  0
 17 16  1  0  0  0  0
 18 17  2  0  0  0  0
 19 20  2  0  0  0  0
 21 19  1  0  0  0  0
 21 23  1  0  0  0  0
 24 25  1  1  0  0  0
 26 24  1  0  0  0  0
 26 27  1  0  0  0  0
 28 16  1  0  0  0  0
 28 29  1  0  0  0  0
 29 30  1  0  0  0  0
 30 31  1  0  0  0  0
M  END
>  <Pose>
1

>  <Score>
-5.295

$$$$
