/Users/jonathanwahrer/Desktop/Msc/3_Semester/Drug_Design_Praktikum/waehrer_HTS_screening/HTS_experiment/out/docking_results/vina_output/6q9y/2032_docked.pdbqt
 OpenBabel03222220353D

 31 34  0  0  0  0  0  0  0  0999 V2000
   -0.7560   12.2680  -13.5450 C   0  0  0  0  0  3  0  0  0  0  0  0
   -0.8620   10.9800  -13.5040 C   0  0  0  0  0  0  0  0  0  0  0  0
    0.0540   10.1000  -12.9980 O   0  0  0  0  0  0  0  0  0  0  0  0
   -0.4380    8.8030  -13.1340 C   0  0  0  0  0  0  0  0  0  0  0  0
   -1.6610    8.7780  -13.7240 C   0  0  0  0  0  0  0  0  0  0  0  0
   -2.3380    7.5720  -13.9370 C   0  0  0  0  0  3  0  0  0  0  0  0
   -1.8080    6.3630  -13.5680 C   0  0  0  0  0  3  0  0  0  0  0  0
   -0.5390    6.4400  -12.9670 C   0  0  0  0  0  0  0  0  0  0  0  0
    0.1390    7.5890  -12.7430 C   0  0  0  0  0  0  0  0  0  0  0  0
   -0.0310    5.1700  -12.6230 O   0  0  0  0  0  1  0  0  0  0  0  0
   -1.9890   10.1830  -13.9910 C   0  0  0  0  0  0  0  0  0  0  0  0
   -3.0470   10.6150  -14.5350 O   0  0  0  0  0  0  0  0  0  0  0  0
    0.3580   13.0730  -13.0630 C   0  0  0  0  0  0  0  0  0  0  0  0
    1.5860   12.4990  -12.8560 C   0  0  0  0  0  3  0  0  0  0  0  0
    2.6570   13.2600  -12.3530 C   0  0  0  0  0  0  0  0  0  0  0  0
    4.3740   12.5070  -12.0600 Br  0  0  0  0  0  0  0  0  0  0  0  0
    2.4600   14.5930  -12.0680 C   0  0  0  0  0  3  0  0  0  0  0  0
    1.2440   15.1610  -12.2690 C   0  0  0  0  0  3  0  0  0  0  0  0
    0.1750   14.4050  -12.7720 C   0  0  0  0  0  0  0  0  0  0  0  0
   -1.0580   14.9130  -12.9930 O   0  0  0  0  0  0  0  0  0  0  0  0
   -1.4130   16.2460  -13.1210 C   0  0  0  0  0  1  0  0  0  0  0  0
    1.4910    7.6690  -12.1590 C   0  0  0  0  0  2  0  0  0  0  0  0
    2.5130    7.4650  -13.1580 N   0  0  0  0  0  4  0  0  0  0  0  0
    3.1470    6.1770  -12.9380 C   0  0  0  0  0  2  0  0  0  0  0  0
    4.6010    6.1550  -13.1520 C   0  0  0  0  0  2  0  0  0  0  0  0
    5.1090    7.0600  -14.1320 N   0  0  0  0  0  0  0  0  0  0  0  0
    4.2430    8.0140  -14.6590 C   0  0  0  0  0  2  0  0  0  0  0  0
    3.2980    8.5340  -13.5430 C   0  0  0  0  0  2  0  0  0  0  0  0
    1.8760    7.2580  -14.0570 H   0  0  0  0  0  0  0  0  0  0  0  0
    6.4850    7.3740  -14.0570 C   0  0  0  0  0  2  0  0  0  0  0  0
    7.1970    6.8620  -12.8550 C   0  0  0  0  0  1  0  0  0  0  0  0
  1  2  2  0  0  0  0
  1 13  1  0  0  0  0
  2  3  1  0  0  0  0
  4  3  1  0  0  0  0
  4  9  1  0  0  0  0
  5  4  2  0  0  0  0
  6  5  1  0  0  0  0
  6  7  2  0  0  0  0
  7  8  1  0  0  0  0
  8  9  2  0  0  0  0
  8 10  1  0  0  0  0
  9 22  1  0  0  0  0
 11  5  1  0  0  0  0
 11  2  1  0  0  0  0
 12 11  2  0  0  0  0
 13 14  2  0  0  0  0
 13 19  1  0  0  0  0
 14 15  1  0  0  0  0
 15 17  2  0  0  0  0
 15 16  1  0  0  0  0
 18 17  1  0  0  0  0
 19 18  2  0  0  0  0
 20 19  1  0  0  0  0
 21 20  1  0  0  0  0
 23 24  1  0  0  0  0
 23 22  1  0  0  0  0
 25 24  1  0  0  0  0
 26 30  1  0  0  0  0
 26 25  1  0  0  0  0
 27 26  1  0  0  0  0
 27 28  1  0  0  0  0
 28 23  1  0  0  0  0
 29 23  1  0  0  0  0
 30 31  1  0  0  0  0
M  END
>  <Pose>
1

>  <Score>
-9.171

$$$$
