/Users/jonathanwahrer/Desktop/Msc/3_Semester/Drug_Design_Praktikum/waehrer_HTS_screening/HTS_experiment/out/docking_results/vina_output/6q9y/2041_docked.pdbqt
 OpenBabel03222220353D

 30 33  0  0  0  0  0  0  0  0999 V2000
    2.2270   10.1790  -13.7170 N   0  0  0  0  0  0  0  0  0  0  0  0
    2.6230   10.6740  -12.4140 C   0  0  0  0  0  2  0  0  0  0  0  0
    2.6880   12.1960  -12.4220 C   0  0  0  0  0  2  0  0  0  0  0  0
    1.3530   12.6970  -12.7480 N   0  0  0  0  0  0  0  0  0  0  0  0
    0.4310   11.7030  -13.2120 C   0  0  0  0  0  2  0  0  0  0  0  0
    1.1220   10.8950  -14.2780 C   0  0  0  0  0  2  0  0  0  0  0  0
    1.0720   14.0560  -12.5780 C   0  0  0  0  0  0  0  0  0  0  0  0
    2.0080   14.8350  -12.1280 O   0  0  0  0  0  0  0  0  0  0  0  0
   -0.1820   14.7690  -12.8410 C   0  0  0  0  0  2  0  0  0  0  0  0
   -0.0850   16.5430  -12.6350 S   0  0  0  0  0  0  0  0  0  0  0  0
   -1.6600   17.3760  -12.7150 C   0  0  0  0  0  0  0  0  0  0  0  0
   -2.4870   17.1890  -13.7350 N   0  0  0  0  0  0  0  0  0  0  0  0
   -3.6840   17.7740  -13.8340 C   0  0  0  0  0  3  0  0  0  0  0  0
   -4.0770   18.6140  -12.8260 N   0  0  0  0  0  0  0  0  0  0  0  0
   -3.2670   18.8230  -11.7840 C   0  0  0  0  0  0  0  0  0  0  0  0
   -3.4200   19.5900  -10.6650 N   0  0  0  0  0  0  0  0  0  0  0  0
   -2.0290   18.2150  -11.6860 C   0  0  0  0  0  0  0  0  0  0  0  0
   -2.3390   19.4610   -9.9230 N   0  0  0  0  0  0  0  0  0  0  0  0
   -4.5690   20.3880  -10.3520 C   0  0  0  0  0  1  0  0  0  0  0  0
   -1.4700   18.6340  -10.5080 C   0  0  0  0  0  3  0  0  0  0  0  0
    1.8930    8.4950  -13.6300 S   0  0  0  0  0  0  0  0  0  0  0  0
    1.1220    8.2670  -12.3510 O   0  0  0  0  0  0  0  0  0  0  0  0
    1.0240    8.0350  -14.7520 O   0  0  0  0  0  0  0  0  0  0  0  0
    3.3950    7.6000  -13.5930 C   0  0  0  0  0  0  0  0  0  0  0  0
    4.5910    8.0730  -14.0850 C   0  0  0  0  0  3  0  0  0  0  0  0
    5.7370    7.3170  -14.0350 C   0  0  0  0  0  3  0  0  0  0  0  0
    5.7080    6.0400  -13.4750 C   0  0  0  0  0  0  0  0  0  0  0  0
    4.5000    5.5470  -12.9710 C   0  0  0  0  0  3  0  0  0  0  0  0
    7.1710    5.0930  -13.4170 Cl  0  0  0  0  0  0  0  0  0  0  0  0
    3.3640    6.3240  -13.0330 C   0  0  0  0  0  3  0  0  0  0  0  0
  1 21  1  0  0  0  0
  1  2  1  0  0  0  0
  3  2  1  0  0  0  0
  4  7  1  0  0  0  0
  4  3  1  0  0  0  0
  5  4  1  0  0  0  0
  6  1  1  0  0  0  0
  6  5  1  0  0  0  0
  7  8  2  0  0  0  0
  9 10  1  0  0  0  0
  9  7  1  0  0  0  0
 11 10  1  0  0  0  0
 11 17  1  0  0  0  0
 12 11  2  0  0  0  0
 13 12  1  0  0  0  0
 13 14  2  0  0  0  0
 14 15  1  0  0  0  0
 15 17  2  0  0  0  0
 15 16  1  0  0  0  0
 16 19  1  0  0  0  0
 16 18  1  0  0  0  0
 17 20  1  0  0  0  0
 20 18  2  0  0  0  0
 21 24  1  0  0  0  0
 21 22  2  0  0  0  0
 23 21  2  0  0  0  0
 24 30  1  0  0  0  0
 25 26  1  0  0  0  0
 25 24  2  0  0  0  0
 26 27  2  0  0  0  0
 27 29  1  0  0  0  0
 27 28  1  0  0  0  0
 30 28  2  0  0  0  0
M  END
>  <Pose>
1

>  <Score>
-9.469

$$$$
