/Users/jonathanwahrer/Desktop/Msc/3_Semester/Drug_Design_Praktikum/waehrer_HTS_screening/HTS_experiment/out/docking_results/vina_output/6q9y/2043_docked.pdbqt
 OpenBabel03222220353D

 32 35  0  0  0  0  0  0  0  0999 V2000
    1.4130   10.0390  -12.9390 N   0  0  0  0  0  0  0  0  0  0  0  0
    1.6500    8.9280  -12.0520 C   0  0  0  0  0  2  0  0  0  0  0  0
    1.8450    7.6790  -12.9090 C   0  0  0  0  0  2  0  0  0  0  0  0
    2.6410    7.9960  -14.0340 N   0  0  0  0  0  0  0  0  0  0  0  0
    1.8210    8.7920  -15.0510 C   0  0  0  0  0  2  0  0  0  0  0  0
    0.9710    9.7050  -14.2420 C   0  0  0  0  0  2  0  0  0  0  0  0
    3.9550    7.7730  -14.3250 C   0  0  0  0  0  0  0  0  0  0  0  0
    4.2040    8.1270  -15.6330 O   0  0  0  0  0  0  0  0  0  0  0  0
    5.1470    7.2990  -13.7390 C   0  0  0  0  0  3  0  0  0  0  0  0
    5.7450    6.2000  -13.4190 C   0  0  0  0  0  0  0  0  0  0  0  0
    5.2010    4.9230  -13.6280 N   0  0  0  0  0  0  0  0  0  0  0  0
    7.1250    6.2500  -12.8490 C   0  0  0  0  0  0  0  0  0  0  0  0
    5.8640    3.7090  -13.3410 N   0  0  0  0  0  0  0  0  0  0  0  0
    4.2470    4.8100  -13.9760 H   0  0  0  0  0  0  0  0  0  0  0  0
    7.1560    3.7520  -12.8080 C   0  0  0  0  0  0  0  0  0  0  0  0
    5.3480    2.8010  -13.5450 H   0  0  0  0  0  0  0  0  0  0  0  0
    7.7570    2.6780  -12.5470 O   0  0  0  0  0  0  0  0  0  0  0  0
    7.7790    5.0650  -12.5650 C   0  0  0  0  0  0  0  0  0  0  0  0
    9.0570    5.0420  -12.0360 C   0  0  0  0  0  3  0  0  0  0  0  0
    9.7190    6.2230  -11.7760 C   0  0  0  0  0  3  0  0  0  0  0  0
    9.0650    7.3960  -12.0600 C   0  0  0  0  0  3  0  0  0  0  0  0
    7.7720    7.4160  -12.5940 C   0  0  0  0  0  3  0  0  0  0  0  0
    2.4830   11.3250  -12.7900 S   0  0  0  0  0  0  0  0  0  0  0  0
    3.4610   10.9880  -11.6720 O   0  0  0  0  0  0  0  0  0  0  0  0
    3.3420   11.3770  -14.0480 O   0  0  0  0  0  0  0  0  0  0  0  0
    1.7680   12.8740  -12.5740 C   0  0  0  0  0  0  0  0  0  0  0  0
    0.4710   13.1220  -12.9460 C   0  0  0  0  0  3  0  0  0  0  0  0
   -0.0820   14.3770  -12.7620 C   0  0  0  0  0  3  0  0  0  0  0  0
    0.6330   15.4140  -12.2080 C   0  0  0  0  0  0  0  0  0  0  0  0
    1.9440   15.1700  -11.8310 C   0  0  0  0  0  3  0  0  0  0  0  0
   -0.1140   16.9850  -11.9970 Cl  0  0  0  0  0  0  0  0  0  0  0  0
    2.4890   13.9020  -12.0210 C   0  0  0  0  0  3  0  0  0  0  0  0
  1 23  1  0  0  0  0
  1  2  1  0  0  0  0
  3  2  1  0  0  0  0
  4  3  1  0  0  0  0
  5  6  1  0  0  0  0
  5  4  1  0  0  0  0
  6  1  1  0  0  0  0
  7  4  1  0  0  0  0
  7  9  1  0  0  0  0
  8  7  2  0  0  0  0
  9 10  2  0  0  0  0
 10 12  1  0  0  0  0
 11 10  1  0  0  0  0
 11 13  1  0  0  0  0
 12 22  2  0  0  0  0
 12 18  1  0  0  0  0
 13 15  1  0  0  0  0
 14 11  1  0  0  0  0
 15 18  1  0  0  0  0
 15 17  2  0  0  0  0
 16 13  1  0  0  0  0
 18 19  2  0  0  0  0
 19 20  1  0  0  0  0
 21 20  2  0  0  0  0
 22 21  1  0  0  0  0
 23 26  1  0  0  0  0
 23 24  2  0  0  0  0
 25 23  2  0  0  0  0
 26 32  1  0  0  0  0
 27 28  1  0  0  0  0
 27 26  2  0  0  0  0
 28 29  2  0  0  0  0
 29 31  1  0  0  0  0
 29 30  1  0  0  0  0
 32 30  2  0  0  0  0
M  END
>  <Pose>
1

>  <Score>
-9.311

$$$$
