/Users/jonathanwahrer/Desktop/Msc/3_Semester/Drug_Design_Praktikum/waehrer_HTS_screening/HTS_experiment/out/docking_results/vina_output/6q9y/2046_docked.pdbqt
 OpenBabel03222220363D

 26 29  0  0  0  0  0  0  0  0999 V2000
   -0.6900    5.5660  -14.2800 Cl  0  0  0  0  0  0  0  0  0  0  0  0
   -1.7650    6.9290  -14.2620 C   0  0  0  0  0  0  0  0  0  0  0  0
   -1.4620    8.0640  -13.5550 C   0  0  0  0  0  0  0  0  0  0  0  0
   -2.3570    9.1100  -13.5800 C   0  0  0  0  0  3  0  0  0  0  0  0
   -3.5430    9.0770  -14.2800 C   0  0  0  0  0  0  0  0  0  0  0  0
   -3.8320    7.9300  -14.9840 C   0  0  0  0  0  3  0  0  0  0  0  0
   -2.9430    6.8770  -14.9650 C   0  0  0  0  0  3  0  0  0  0  0  0
   -4.4660   10.1950  -14.2880 N   0  0  0  0  0  0  0  0  0  0  0  0
   -4.1690   11.1280  -14.5900 H   0  0  0  0  0  0  0  0  0  0  0  0
   -5.7930    9.9240  -13.8570 C   0  0  0  0  0  2  0  0  0  0  0  0
   -6.8720   10.0000  -14.8370 C   0  0  0  0  0  0  0  0  0  0  0  0
   -6.7090    9.1570  -15.8270 O   0  0  0  0  0  0  0  0  0  0  0  0
   -8.0010   10.7770  -14.9080 N   0  0  0  0  0  0  0  0  0  0  0  0
   -8.4610   11.6950  -13.9160 C   0  0  0  0  0  2  0  0  0  0  0  0
   -8.8490   10.7320  -16.1190 C   0  0  0  0  0  2  0  0  0  0  0  0
   -8.5480   13.0810  -14.5470 C   0  0  0  0  0  2  0  0  0  0  0  0
   -9.5370   12.9580  -15.5480 O   0  0  0  0  0  0  0  0  0  0  0  0
   -9.0250   12.1870  -16.5690 C   0  0  0  0  0  2  0  0  0  0  0  0
   -0.2820    8.1930  -12.8020 N   0  0  0  0  0  0  0  0  0  0  0  0
   -0.0760    7.6260  -11.6310 N   0  0  0  0  0  0  0  0  0  0  0  0
    1.1290    7.9270  -11.1860 N   0  0  0  0  0  0  0  0  0  0  0  0
    1.6810    8.6980  -12.1010 N   0  0  0  0  0  0  0  0  0  0  0  0
    0.8040    8.8780  -13.1340 C   0  0  0  0  0  0  0  0  0  0  0  0
    1.1230    9.6980  -14.3020 C   0  0  0  0  0  3  0  0  0  0  0  0
    2.3770   10.4070  -14.5270 C   0  0  0  0  0  2  0  0  0  0  0  0
    2.1750    9.0740  -15.2660 C   0  0  0  0  0  2  0  0  0  0  0  0
  1  2  1  0  0  0  0
  2  3  1  0  0  0  0
  3 19  1  0  0  0  0
  4  3  2  0  0  0  0
  5  4  1  0  0  0  0
  6  7  1  0  0  0  0
  6  5  2  0  0  0  0
  7  2  2  0  0  0  0
  8  5  1  0  0  0  0
  8 10  1  0  0  0  0
  9  8  1  0  0  0  0
 11 10  1  0  0  0  0
 12 11  2  0  0  0  0
 13 11  1  0  0  0  0
 13 14  1  0  0  0  0
 15 13  1  0  0  0  0
 16 14  1  0  0  0  0
 17 16  1  0  0  0  0
 18 15  1  0  0  0  0
 18 17  1  0  0  0  0
 19 20  1  0  0  0  0
 20 21  2  0  0  0  0
 22 21  1  0  0  0  0
 23 19  1  0  0  0  0
 23 22  2  0  0  0  0
 24 23  1  0  0  0  0
 25 24  1  0  0  0  0
 26 25  1  0  0  0  0
 26 24  1  0  0  0  0
M  END
>  <Pose>
1

>  <Score>
-8.341

$$$$
