/Users/jonathanwahrer/Desktop/Msc/3_Semester/Drug_Design_Praktikum/waehrer_HTS_screening/HTS_experiment/out/docking_results/vina_output/6q9y/2063_docked.pdbqt
 OpenBabel03222220363D

 34 37  0  0  1  0  0  0  0  0999 V2000
    5.1360    5.7350  -13.2550 C   0  0  0  0  0  0  0  0  0  0  0  0
    3.8800    5.4690  -12.7170 C   0  0  0  0  0  3  0  0  0  0  0  0
    2.8880    6.3260  -12.7840 O   0  0  0  0  0  0  0  0  0  0  0  0
    2.9990    7.5000  -13.3590 C   0  0  0  0  0  0  0  0  0  0  0  0
    4.2050    7.8520  -13.9190 C   0  0  0  0  0  0  0  0  0  0  0  0
    4.2750    9.0890  -14.5110 C   0  0  0  0  0  3  0  0  0  0  0  0
    3.2190    9.9630  -14.5620 C   0  0  0  0  0  3  0  0  0  0  0  0
    1.9750    9.6220  -13.9950 C   0  0  0  0  0  0  0  0  0  0  0  0
    1.9120    8.3820  -13.4040 C   0  0  0  0  0  3  0  0  0  0  0  0
    5.2670    6.9750  -13.8670 C   0  0  0  0  0  0  0  0  0  0  0  0
    6.3720    7.2970  -14.3800 O   0  0  0  0  0  0  0  0  0  0  0  0
    0.9370   10.5280  -14.0680 O   0  0  0  0  0  0  0  0  0  0  0  0
    0.9530   11.8190  -13.6290 C   0  0  2  0  0  3  0  0  0  0  0  0
    1.7170   11.9990  -12.4450 O   0  0  0  0  0  0  0  0  0  0  0  0
    2.0700   13.3310  -12.4340 C   0  0  1  0  0  3  0  0  0  0  0  0
    0.9160   14.2780  -12.3180 C   0  0  2  0  0  3  0  0  0  0  0  0
   -0.2450   13.8840  -13.1980 C   0  0  1  0  0  3  0  0  0  0  0  0
   -0.4120   12.3800  -13.2720 C   0  0  1  0  0  3  0  0  0  0  0  0
    3.1060   13.6580  -11.3890 C   0  0  0  0  0  2  0  0  0  0  0  0
    2.7100   14.7140  -10.5720 O   0  0  0  0  0  0  0  0  0  0  0  0
    3.0610   14.4860   -9.6550 H   0  0  0  0  0  0  0  0  0  0  0  0
    1.3590   15.5290  -12.7770 O   0  0  0  0  0  0  0  0  0  0  0  0
    2.2330   15.7600  -12.3740 H   0  0  0  0  0  0  0  0  0  0  0  0
   -1.3980   14.5240  -12.7610 O   0  0  0  0  0  0  0  0  0  0  0  0
   -1.5180   14.4510  -11.7650 H   0  0  0  0  0  0  0  0  0  0  0  0
   -1.3550   12.1010  -14.2540 O   0  0  0  0  0  0  0  0  0  0  0  0
   -1.0890   12.4940  -15.1180 H   0  0  0  0  0  0  0  0  0  0  0  0
    6.2160    4.7740  -13.1690 C   0  0  0  0  0  0  0  0  0  0  0  0
    6.1230    3.4880  -13.6610 C   0  0  0  0  0  3  0  0  0  0  0  0
    7.1990    2.6150  -13.5460 C   0  0  0  0  0  3  0  0  0  0  0  0
    8.3820    2.9850  -12.9490 C   0  0  0  0  0  0  0  0  0  0  0  0
    9.8540    1.7720  -12.7990 Br  0  0  0  0  0  0  0  0  0  0  0  0
    8.4760    4.2770  -12.4540 C   0  0  0  0  0  3  0  0  0  0  0  0
    7.4070    5.1430  -12.5690 C   0  0  0  0  0  3  0  0  0  0  0  0
  1 28  1  0  0  0  0
  1  2  2  0  0  0  0
  3  2  1  0  0  0  0
  4  3  1  0  0  0  0
  5 10  1  0  0  0  0
  5  4  2  0  0  0  0
  6  5  1  0  0  0  0
  7  6  2  0  0  0  0
  7  8  1  0  0  0  0
  8  9  2  0  0  0  0
  9  4  1  0  0  0  0
 10  1  1  0  0  0  0
 11 10  2  0  0  0  0
 12  8  1  0  0  0  0
 13 12  1  1  0  0  0
 13 18  1  0  0  0  0
 13 14  1  0  0  0  0
 14 15  1  0  0  0  0
 15 16  1  0  0  0  0
 15 19  1  1  0  0  0
 16 22  1  6  0  0  0
 17 24  1  1  0  0  0
 17 16  1  0  0  0  0
 18 26  1  6  0  0  0
 18 17  1  0  0  0  0
 19 20  1  0  0  0  0
 20 21  1  0  0  0  0
 22 23  1  0  0  0  0
 24 25  1  0  0  0  0
 27 26  1  0  0  0  0
 28 34  1  0  0  0  0
 29 30  1  0  0  0  0
 29 28  2  0  0  0  0
 30 31  2  0  0  0  0
 31 32  1  0  0  0  0
 31 33  1  0  0  0  0
 34 33  2  0  0  0  0
M  END
>  <Pose>
1

>  <Score>
-8.305

$$$$
