/Users/jonathanwahrer/Desktop/Msc/3_Semester/Drug_Design_Praktikum/waehrer_HTS_screening/HTS_experiment/out/docking_results/vina_output/6q9y/2072_docked.pdbqt
 OpenBabel03222220363D

 27 30  0  0  0  0  0  0  0  0999 V2000
    1.1530   15.8570  -12.1080 N   0  0  0  0  0  0  0  0  0  0  0  0
    2.2280   15.8890  -13.0320 C   0  0  0  0  0  2  0  0  0  0  0  0
    3.3330   14.8880  -12.8460 C   0  0  0  0  0  2  0  0  0  0  0  0
    2.7910   13.6880  -12.3010 N   0  0  0  0  0  0  0  0  0  0  0  0
    2.3260   14.0280  -10.9560 C   0  0  0  0  0  2  0  0  0  0  0  0
    1.1340   14.9000  -11.0830 C   0  0  0  0  0  2  0  0  0  0  0  0
    3.6800   12.5770  -12.2730 C   0  0  0  0  0  2  0  0  0  0  0  0
    3.4300   11.6330  -13.3990 C   0  0  0  0  0  2  0  0  0  0  0  0
    2.0710   11.1340  -13.4100 N   0  0  0  0  0  0  0  0  0  0  0  0
    0.9570   11.8290  -13.6330 N   0  0  0  0  0  0  0  0  0  0  0  0
   -0.1150   11.0260  -13.5760 C   0  0  0  0  0  0  0  0  0  0  0  0
    0.3310    9.7920  -13.3100 N   0  0  0  0  0  0  0  0  0  0  0  0
   -1.4790   11.1990  -13.7250 C   0  0  0  0  0  3  0  0  0  0  0  0
   -0.5240    8.7470  -13.1890 C   0  0  0  0  0  3  0  0  0  0  0  0
    1.6900    9.8710  -13.2080 C   0  0  0  0  0  0  0  0  0  0  0  0
   -1.8850    8.8940  -13.3320 C   0  0  0  0  0  3  0  0  0  0  0  0
   -2.3720   10.1570  -13.6070 C   0  0  0  0  0  3  0  0  0  0  0  0
    2.3880    8.8600  -12.9590 O   0  0  0  0  0  0  0  0  0  0  0  0
   -0.3370   15.8220  -12.9730 S   0  0  0  0  0  0  0  0  0  0  0  0
   -0.0370   15.9710  -14.4480 O   0  0  0  0  0  0  0  0  0  0  0  0
   -1.0550   14.5380  -12.7830 O   0  0  0  0  0  0  0  0  0  0  0  0
   -1.3960   17.1270  -12.4180 C   0  0  0  0  0  0  0  0  0  0  0  0
   -1.2530   18.1230  -11.0420 S   0  0  0  0  0  0  0  0  0  0  0  0
   -2.6430   19.0820  -11.2500 C   0  0  0  0  0  0  0  0  0  0  0  0
   -3.1890   18.5910  -12.4050 C   0  0  0  0  0  3  0  0  0  0  0  0
   -3.3150   20.5160  -10.1510 Br  0  0  0  0  0  0  0  0  0  0  0  0
   -2.5460   17.5830  -13.0070 C   0  0  0  0  0  3  0  0  0  0  0  0
  1  6  1  0  0  0  0
  2  3  1  0  0  0  0
  2  1  1  0  0  0  0
  3  4  1  0  0  0  0
  4  7  1  0  0  0  0
  4  5  1  0  0  0  0
  6  5  1  0  0  0  0
  8  7  1  0  0  0  0
  9  8  1  0  0  0  0
  9 15  1  0  0  0  0
 10 11  2  0  0  0  0
 10  9  1  0  0  0  0
 11 12  1  0  0  0  0
 12 15  1  0  0  0  0
 12 14  1  0  0  0  0
 13 17  2  0  0  0  0
 13 11  1  0  0  0  0
 15 18  2  0  0  0  0
 16 14  2  0  0  0  0
 17 16  1  0  0  0  0
 19 21  2  0  0  0  0
 19 22  1  0  0  0  0
 19  1  1  0  0  0  0
 20 19  2  0  0  0  0
 22 23  1  0  0  0  0
 24 23  1  0  0  0  0
 24 26  1  0  0  0  0
 25 24  2  0  0  0  0
 27 22  2  0  0  0  0
 27 25  1  0  0  0  0
M  END
>  <Pose>
1

>  <Score>
-8.806

$$$$
