/Users/jonathanwahrer/Desktop/Msc/3_Semester/Drug_Design_Praktikum/waehrer_HTS_screening/HTS_experiment/out/docking_results/vina_output/6q9y/2079_docked.pdbqt
 OpenBabel03222220363D

 31 34  0  0  0  0  0  0  0  0999 V2000
    2.4320    9.5990  -13.4340 C   0  0  0  0  0  0  0  0  0  0  0  0
    1.8810    8.4520  -12.9110 C   0  0  0  0  0  3  0  0  0  0  0  0
    2.6400    7.2730  -12.9230 C   0  0  0  0  0  0  0  0  0  0  0  0
    3.9130    7.2440  -13.4490 C   0  0  0  0  0  0  0  0  0  0  0  0
    4.7440    6.1250  -13.5040 C   0  0  0  0  0  0  0  0  0  0  0  0
    4.1580    4.9630  -12.9410 C   0  0  0  0  0  0  0  0  0  0  0  0
    2.8770    4.9520  -12.3950 C   0  0  0  0  0  3  0  0  0  0  0  0
    2.1280    6.1180  -12.3900 C   0  0  0  0  0  3  0  0  0  0  0  0
    4.8100    3.7470  -12.8880 O   0  0  0  0  0  1  0  0  0  0  0  0
    4.3820    8.3280  -13.9230 O   0  0  0  0  0  0  0  0  0  0  0  0
    3.7400    9.4980  -13.9540 C   0  0  0  0  0  0  0  0  0  0  0  0
    4.2560   10.5120  -14.4370 O   0  0  0  0  0  0  0  0  0  0  0  0
    6.1120    6.0560  -13.8780 C   0  0  0  0  0  2  0  0  0  0  0  0
    7.0620    7.1280  -13.7220 N   0  0  0  0  0  4  0  0  0  0  0  0
    7.6840    7.1160  -12.3680 C   0  0  0  0  0  2  0  0  0  0  0  0
    7.9690    5.7160  -11.9550 C   0  0  0  0  0  2  0  0  0  0  0  0
    8.8790    4.9910  -12.8120 N   0  0  0  0  0  0  0  0  0  0  0  0
    8.8430    5.4340  -14.1650 C   0  0  0  0  0  2  0  0  0  0  0  0
    8.2790    6.7330  -14.5030 C   0  0  0  0  0  2  0  0  0  0  0  0
    6.8450    8.0460  -14.0340 H   0  0  0  0  0  0  0  0  0  0  0  0
    8.6050    3.5480  -12.7410 C   0  0  0  0  0  2  0  0  0  0  0  0
    8.2380    2.9710  -14.0890 C   0  0  0  0  0  2  0  0  0  0  0  0
    7.0280    2.2940  -14.0700 O   0  0  0  0  0  0  0  0  0  0  0  0
    6.3040    2.9390  -14.3510 H   0  0  0  0  0  0  0  0  0  0  0  0
    1.7400   10.9000  -13.3480 C   0  0  0  0  0  0  0  0  0  0  0  0
    0.4290   10.9540  -13.8600 C   0  0  0  0  0  3  0  0  0  0  0  0
   -0.3010   12.1260  -13.7670 C   0  0  0  0  0  3  0  0  0  0  0  0
    0.2190   13.2740  -13.1800 C   0  0  0  0  0  0  0  0  0  0  0  0
   -0.7360   14.7620  -12.9680 Cl  0  0  0  0  0  0  0  0  0  0  0  0
    1.5090   13.2130  -12.6850 C   0  0  0  0  0  3  0  0  0  0  0  0
    2.2200   12.0310  -12.7910 C   0  0  0  0  0  3  0  0  0  0  0  0
  1 25  1  0  0  0  0
  1  2  2  0  0  0  0
  3  2  1  0  0  0  0
  3  8  1  0  0  0  0
  4  3  2  0  0  0  0
  5  4  1  0  0  0  0
  5  6  2  0  0  0  0
  6  9  1  0  0  0  0
  6  7  1  0  0  0  0
  7  8  2  0  0  0  0
 10  4  1  0  0  0  0
 11 10  1  0  0  0  0
 11  1  1  0  0  0  0
 12 11  2  0  0  0  0
 13 14  1  0  0  0  0
 13  5  1  0  0  0  0
 14 15  1  0  0  0  0
 15 16  1  0  0  0  0
 17 21  1  0  0  0  0
 17 16  1  0  0  0  0
 18 17  1  0  0  0  0
 19 18  1  0  0  0  0
 19 14  1  0  0  0  0
 20 14  1  0  0  0  0
 22 23  1  0  0  0  0
 22 21  1  0  0  0  0
 24 23  1  0  0  0  0
 25 31  1  0  0  0  0
 26 27  1  0  0  0  0
 26 25  2  0  0  0  0
 27 28  2  0  0  0  0
 28 29  1  0  0  0  0
 28 30  1  0  0  0  0
 31 30  2  0  0  0  0
M  END
>  <Pose>
1

>  <Score>
-7.984

$$$$
