/Users/jonathanwahrer/Desktop/Msc/3_Semester/Drug_Design_Praktikum/waehrer_HTS_screening/HTS_experiment/out/docking_results/vina_output/6q9y/2124_docked.pdbqt
 OpenBabel03222220383D

 25 29  0  0  1  0  0  0  0  0999 V2000
    3.7030    7.2820  -13.7720 N   0  0  0  0  0  0  0  0  0  0  0  0
    2.4600    6.8930  -13.2070 C   0  0  0  0  0  0  0  0  0  0  0  0
    2.3120    6.0430  -12.2890 O   0  0  0  0  0  0  0  0  0  0  0  0
    1.3320    7.6380  -13.8590 C   0  0  1  0  0  3  0  0  0  0  0  0
    0.5280    8.3880  -12.8500 C   0  0  2  0  0  0  0  0  0  0  0  0
    0.4500    9.7060  -13.3630 O   0  0  0  0  0  0  0  0  0  0  0  0
    1.8460    9.8880  -13.5380 C   0  0  2  0  0  0  0  0  0  0  0  0
    2.0830    8.7790  -14.5590 C   0  0  1  0  0  3  0  0  0  0  0  0
    3.4730    8.3630  -14.6660 C   0  0  0  0  0  0  0  0  0  0  0  0
    4.3160    8.8930  -15.4350 O   0  0  0  0  0  0  0  0  0  0  0  0
    2.3360    9.5190  -12.1890 C   0  0  0  0  0  2  0  0  0  0  0  0
    1.4310    8.6540  -11.6850 C   0  0  0  0  0  2  0  0  0  0  0  0
    2.2280   11.2320  -13.9980 C   0  0  0  0  0  1  0  0  0  0  0  0
    5.0120    6.7480  -13.5520 C   0  0  0  0  0  0  0  0  0  0  0  0
    6.1460    7.5240  -13.5170 C   0  0  0  0  0  3  0  0  0  0  0  0
    7.4070    6.9970  -13.3050 C   0  0  0  0  0  3  0  0  0  0  0  0
    7.5650    5.6440  -13.1200 C   0  0  0  0  0  0  0  0  0  0  0  0
    9.1570    4.9270  -12.8510 Cl  0  0  0  0  0  0  0  0  0  0  0  0
    6.4380    4.8540  -13.1540 C   0  0  0  0  0  3  0  0  0  0  0  0
    5.1680    5.3870  -13.3660 C   0  0  0  0  0  3  0  0  0  0  0  0
   -0.7800    7.8300  -12.4860 C   0  0  0  0  0  3  0  0  0  0  0  0
   -1.7550    8.8060  -12.7050 O   0  0  0  0  0  0  0  0  0  0  0  0
   -2.1780    8.7050  -14.0060 C   0  0  0  0  0  2  0  0  0  0  0  0
   -1.9290    7.2550  -14.3250 C   0  0  0  0  0  2  0  0  0  0  0  0
   -1.0930    6.7740  -13.3420 O   0  0  0  0  0  0  0  0  0  0  0  0
  1 14  1  0  0  0  0
  1  2  1  0  0  0  0
  2  3  2  0  0  0  0
  4  2  1  1  0  0  0
  4  5  1  0  0  0  0
  5 21  1  1  0  0  0
  5 12  1  0  0  0  0
  6  5  1  0  0  0  0
  7 13  1  6  0  0  0
  7  6  1  0  0  0  0
  7 11  1  0  0  0  0
  8  9  1  1  0  0  0
  8  4  1  0  0  0  0
  8  7  1  0  0  0  0
  9  1  1  0  0  0  0
 10  9  2  0  0  0  0
 11 12  1  0  0  0  0
 14 15  2  0  0  0  0
 14 20  1  0  0  0  0
 15 16  1  0  0  0  0
 16 17  2  0  0  0  0
 17 18  1  0  0  0  0
 19 17  1  0  0  0  0
 20 19  2  0  0  0  0
 22 21  1  0  0  0  0
 23 22  1  0  0  0  0
 24 23  1  0  0  0  0
 24 25  1  0  0  0  0
 25 21  1  0  0  0  0
M  END
>  <Pose>
1

>  <Score>
-7.888

$$$$
