/Users/jonathanwahrer/Desktop/Msc/3_Semester/Drug_Design_Praktikum/waehrer_HTS_screening/HTS_experiment/out/docking_results/vina_output/6q9y/2134_docked.pdbqt
 OpenBabel03222220383D

 36 39  0  0  0  0  0  0  0  0999 V2000
   -0.7480    8.5070  -13.8500 C   0  0  0  0  0  0  0  0  0  0  0  0
    0.1380    7.5460  -13.7550 N   0  0  0  0  0  0  0  0  0  0  0  0
    1.3890    8.0120  -13.4410 N   0  0  0  0  0  0  0  0  0  0  0  0
    1.2580    9.4290  -13.3270 C   0  0  0  0  0  0  0  0  0  0  0  0
    2.1050   10.3750  -13.0490 N   0  0  0  0  0  0  0  0  0  0  0  0
    1.7150   11.7400  -12.9990 N   0  0  0  0  0  0  0  0  0  0  0  0
    0.3910   12.1460  -13.2460 C   0  0  0  0  0  0  0  0  0  0  0  0
    0.0140   13.4170  -13.2110 C   0  0  0  0  0  2  0  0  0  0  0  0
   -0.5760   11.0990  -13.5580 C   0  0  0  0  0  0  0  0  0  0  0  0
   -1.7450   11.4330  -13.7770 O   0  0  0  0  0  0  0  0  0  0  0  0
   -0.1070    9.7500  -13.5880 N   0  0  0  0  0  0  0  0  0  0  0  0
    2.4740   12.4190  -12.7660 H   0  0  0  0  0  0  0  0  0  0  0  0
   -2.1480    8.3070  -14.1700 C   0  0  0  0  0  0  0  0  0  0  0  0
   -3.1240    9.1340  -13.5630 N   0  0  0  0  0  0  0  0  0  0  0  0
   -2.8840    9.8990  -12.9160 H   0  0  0  0  0  0  0  0  0  0  0  0
   -2.5190    7.3990  -14.9800 O   0  0  0  0  0  0  0  0  0  0  0  0
   -4.4630    8.9090  -13.8620 N   0  0  0  0  0  0  0  0  0  0  0  0
   -5.4220    9.8750  -14.2230 C   0  0  0  0  0  0  0  0  0  0  0  0
   -6.7650    9.5770  -14.5150 N   0  0  0  0  0  0  0  0  0  0  0  0
   -5.0610   11.0800  -14.2960 O   0  0  0  0  0  0  0  0  0  0  0  0
   -7.0980    8.5830  -14.4560 H   0  0  0  0  0  0  0  0  0  0  0  0
   -4.7540    7.8800  -13.7870 H   0  0  0  0  0  0  0  0  0  0  0  0
   -7.7570   10.5230  -14.9010 C   0  0  0  0  0  0  0  0  0  0  0  0
   -8.2290   11.4700  -13.9960 C   0  0  0  0  0  3  0  0  0  0  0  0
   -9.1880   12.3960  -14.3410 C   0  0  0  0  0  3  0  0  0  0  0  0
   -9.6650   12.3490  -15.6260 C   0  0  0  0  0  0  0  0  0  0  0  0
  -10.8940   13.4990  -16.1710 Cl  0  0  0  0  0  0  0  0  0  0  0  0
   -9.2290   11.4370  -16.5480 C   0  0  0  0  0  3  0  0  0  0  0  0
   -8.2710   10.5160  -16.1900 C   0  0  0  0  0  3  0  0  0  0  0  0
    2.5750    7.2320  -13.3140 C   0  0  0  0  0  0  0  0  0  0  0  0
    2.5740    6.0300  -12.6500 C   0  0  0  0  0  3  0  0  0  0  0  0
    3.6890    5.2120  -12.5320 C   0  0  0  0  0  3  0  0  0  0  0  0
    4.8860    5.5950  -13.1030 C   0  0  0  0  0  0  0  0  0  0  0  0
    4.9130    6.8000  -13.7730 C   0  0  0  0  0  3  0  0  0  0  0  0
    6.1010    4.7270  -13.0330 C   0  0  0  0  0  1  0  0  0  0  0  0
    3.7760    7.6020  -13.8740 C   0  0  0  0  0  3  0  0  0  0  0  0
  1  2  2  0  0  0  0
  1 11  1  0  0  0  0
  2  3  1  0  0  0  0
  3  4  1  0  0  0  0
  3 30  1  0  0  0  0
  4  5  2  0  0  0  0
  5  6  1  0  0  0  0
  6 12  1  0  0  0  0
  7  8  2  0  0  0  0
  7  6  1  0  0  0  0
  9  7  1  0  0  0  0
 10  9  2  0  0  0  0
 11  9  1  0  0  0  0
 11  4  1  0  0  0  0
 13  1  1  0  0  0  0
 13 14  1  0  0  0  0
 14 15  1  0  0  0  0
 16 13  2  0  0  0  0
 17 22  1  0  0  0  0
 17 14  1  0  0  0  0
 18 17  1  0  0  0  0
 19 21  1  0  0  0  0
 19 18  1  0  0  0  0
 20 18  2  0  0  0  0
 23 19  1  0  0  0  0
 23 24  1  0  0  0  0
 25 24  2  0  0  0  0
 26 25  1  0  0  0  0
 27 26  1  0  0  0  0
 28 29  1  0  0  0  0
 28 26  2  0  0  0  0
 29 23  2  0  0  0  0
 30 31  1  0  0  0  0
 31 32  2  0  0  0  0
 33 35  1  0  0  0  0
 33 32  1  0  0  0  0
 34 33  2  0  0  0  0
 36 34  1  0  0  0  0
 36 30  2  0  0  0  0
M  END
>  <Pose>
1

>  <Score>
-10.489

$$$$
