/Users/jonathanwahrer/Desktop/Msc/3_Semester/Drug_Design_Praktikum/waehrer_HTS_screening/HTS_experiment/out/docking_results/vina_output/6q9y/2139_docked.pdbqt
 OpenBabel03222220393D

 27 30  0  0  0  0  0  0  0  0999 V2000
   -0.8360    7.1270  -12.8020 N   0  0  0  0  0  0  0  0  0  0  0  0
   -0.4680    5.7680  -12.8460 C   0  0  0  0  0  2  0  0  0  0  0  0
    1.0030    5.4760  -12.9700 C   0  0  0  0  0  2  0  0  0  0  0  0
    1.7030    6.6870  -12.4670 N   0  0  0  0  0  0  0  0  0  0  0  0
    1.0850    7.2780  -11.3420 C   0  0  0  0  0  2  0  0  0  0  0  0
   -0.1860    7.9460  -11.8190 C   0  0  0  0  0  2  0  0  0  0  0  0
    2.8840    7.0590  -13.1440 C   0  0  0  0  0  0  0  0  0  0  0  0
    3.9930    6.2670  -13.0340 N   0  0  0  0  0  0  0  0  0  0  0  0
    5.1710    6.5220  -13.5880 C   0  0  0  0  0  0  0  0  0  0  0  0
    5.3060    7.6400  -14.3210 N   0  0  0  0  0  0  0  0  0  0  0  0
    4.2430    8.4620  -14.4670 C   0  0  0  0  0  0  0  0  0  0  0  0
    4.0790    9.6180  -15.1370 N   0  0  0  0  0  0  0  0  0  0  0  0
    3.0010    8.2000  -13.8850 C   0  0  0  0  0  0  0  0  0  0  0  0
    2.8250   10.0420  -14.9830 C   0  0  0  0  0  3  0  0  0  0  0  0
    2.1400    9.1770  -14.2130 N   0  0  0  0  0  0  0  0  0  0  0  0
    1.1360    9.2890  -13.9590 H   0  0  0  0  0  0  0  0  0  0  0  0
    6.3030    5.6400  -13.4310 N   0  0  0  0  0  0  0  0  0  0  0  0
    7.2680    5.9520  -13.6070 H   0  0  0  0  0  0  0  0  0  0  0  0
    6.1520    4.6570  -13.1300 H   0  0  0  0  0  0  0  0  0  0  0  0
   -1.1770    7.7610  -14.0170 C   0  0  0  0  0  2  0  0  0  0  0  0
   -2.5120    8.3510  -14.0900 C   0  0  0  0  0  0  0  0  0  0  0  0
   -3.5700    7.6320  -14.5860 C   0  0  0  0  0  3  0  0  0  0  0  0
   -4.8630    8.1340  -14.6840 C   0  0  0  0  0  3  0  0  0  0  0  0
   -5.0700    9.4270  -14.2520 C   0  0  0  0  0  0  0  0  0  0  0  0
   -6.6720   10.1290  -14.3440 Cl  0  0  0  0  0  0  0  0  0  0  0  0
   -4.0100   10.1510  -13.7550 C   0  0  0  0  0  3  0  0  0  0  0  0
   -2.7390    9.6360  -13.6670 C   0  0  0  0  0  3  0  0  0  0  0  0
  1  6  1  0  0  0  0
  2  1  1  0  0  0  0
  3  2  1  0  0  0  0
  3  4  1  0  0  0  0
  4  5  1  0  0  0  0
  6  5  1  0  0  0  0
  7  8  1  0  0  0  0
  7  4  1  0  0  0  0
  9 17  1  0  0  0  0
  9  8  2  0  0  0  0
 10  9  1  0  0  0  0
 11 10  2  0  0  0  0
 11 13  1  0  0  0  0
 12 14  2  0  0  0  0
 12 11  1  0  0  0  0
 13  7  2  0  0  0  0
 14 15  1  0  0  0  0
 15 16  1  0  0  0  0
 15 13  1  0  0  0  0
 17 19  1  0  0  0  0
 18 17  1  0  0  0  0
 20  1  1  0  0  0  0
 21 20  1  0  0  0  0
 21 27  1  0  0  0  0
 22 21  2  0  0  0  0
 23 22  1  0  0  0  0
 23 24  2  0  0  0  0
 24 26  1  0  0  0  0
 25 24  1  0  0  0  0
 26 27  2  0  0  0  0
M  END
>  <Pose>
1

>  <Score>
-7.714

$$$$
