/Users/jonathanwahrer/Desktop/Msc/3_Semester/Drug_Design_Praktikum/waehrer_HTS_screening/HTS_experiment/out/docking_results/vina_output/6q9y/2149_docked.pdbqt
 OpenBabel03222220393D

 24 27  0  0  0  0  0  0  0  0999 V2000
    0.2280   15.8030  -12.2890 N   0  0  0  0  0  0  0  0  0  0  0  0
   -0.6460   15.3590  -13.1720 N   0  0  0  0  0  0  0  0  0  0  0  0
   -0.3790   14.1150  -13.5240 N   0  0  0  0  0  0  0  0  0  0  0  0
    0.7040   13.7100  -12.8620 C   0  0  0  0  0  0  0  0  0  0  0  0
    1.0900   14.7760  -12.0790 C   0  0  0  0  0  0  0  0  0  0  0  0
    2.1720   14.6230  -11.3020 N   0  0  0  0  0  0  0  0  0  0  0  0
    2.8560   13.4660  -11.2900 C   0  0  0  0  0  3  0  0  0  0  0  0
    2.4600   12.4390  -12.0620 N   0  0  0  0  0  0  0  0  0  0  0  0
    1.3780   12.4950  -12.8820 C   0  0  0  0  0  0  0  0  0  0  0  0
    0.2940   17.1140  -11.6470 C   0  0  0  0  0  2  0  0  0  0  0  0
   -1.0420   17.7490  -11.7810 C   0  0  0  0  0  0  0  0  0  0  0  0
   -1.5290   18.4410  -10.7060 C   0  0  0  0  0  3  0  0  0  0  0  0
   -2.7660   19.0630  -10.7460 C   0  0  0  0  0  3  0  0  0  0  0  0
   -3.5190   18.9850  -11.8900 C   0  0  0  0  0  0  0  0  0  0  0  0
   -5.0940   19.7680  -11.9630 Cl  0  0  0  0  0  0  0  0  0  0  0  0
   -3.0190   18.2850  -12.9700 C   0  0  0  0  0  3  0  0  0  0  0  0
   -1.7940   17.6680  -12.9290 C   0  0  0  0  0  3  0  0  0  0  0  0
    0.9600   11.4240  -13.6920 N   0  0  0  0  0  0  0  0  0  0  0  0
    1.7520   10.7180  -14.6630 C   0  0  0  0  0  2  0  0  0  0  0  0
    1.8000    9.2860  -14.2760 C   0  0  0  0  0  2  0  0  0  0  0  0
    0.8450    8.8130  -13.3650 N   0  0  0  0  0  0  0  0  0  0  0  0
   -0.3440    9.5210  -13.1480 C   0  0  0  0  0  2  0  0  0  0  0  0
    1.4870    8.5480  -12.0900 C   0  0  0  0  0  1  0  0  0  0  0  0
   -0.3930   10.9370  -13.5840 C   0  0  0  0  0  2  0  0  0  0  0  0
  1  5  1  0  0  0  0
  1 10  1  0  0  0  0
  2  1  1  0  0  0  0
  3  2  2  0  0  0  0
  3  4  1  0  0  0  0
  4  5  1  0  0  0  0
  5  6  2  0  0  0  0
  6  7  1  0  0  0  0
  8  7  2  0  0  0  0
  9  4  2  0  0  0  0
  9  8  1  0  0  0  0
 11 10  1  0  0  0  0
 11 12  1  0  0  0  0
 13 12  2  0  0  0  0
 14 13  1  0  0  0  0
 15 14  1  0  0  0  0
 16 17  1  0  0  0  0
 16 14  2  0  0  0  0
 17 11  2  0  0  0  0
 18 24  1  0  0  0  0
 18  9  1  0  0  0  0
 19 20  1  0  0  0  0
 19 18  1  0  0  0  0
 20 21  1  0  0  0  0
 21 22  1  0  0  0  0
 21 23  1  0  0  0  0
 24 22  1  0  0  0  0
M  END
>  <Pose>
1

>  <Score>
-8.998

$$$$
