/Users/jonathanwahrer/Desktop/Msc/3_Semester/Drug_Design_Praktikum/waehrer_HTS_screening/HTS_experiment/out/docking_results/vina_output/6q9y/2164_docked.pdbqt
 OpenBabel03222220393D

 25 28  0  0  1  0  0  0  0  0999 V2000
    1.1490   16.1290  -11.6980 C   0  0  2  0  0  3  0  0  0  0  0  0
    1.8140   15.3540  -12.8060 C   0  0  0  0  0  2  0  0  0  0  0  0
    1.3120   14.0850  -12.2580 N   0  0  0  0  0  0  0  0  0  0  0  0
    1.1020   14.7960  -11.0110 C   0  0  0  0  0  2  0  0  0  0  0  0
   -0.1970   16.6880  -12.0690 C   0  0  0  0  0  0  0  0  0  0  0  0
   -0.7500   17.7130  -11.2850 N   0  0  0  0  0  0  0  0  0  0  0  0
   -0.1870   18.0750  -10.4310 H   0  0  0  0  0  0  0  0  0  0  0  0
   -0.7220   16.1770  -13.0690 O   0  0  0  0  0  0  0  0  0  0  0  0
   -1.9970   18.3290  -11.5110 C   0  0  0  0  0  0  0  0  0  0  0  0
   -2.4880   19.2420  -10.5660 C   0  0  0  0  0  3  0  0  0  0  0  0
   -3.6940   19.8880  -10.7080 C   0  0  0  0  0  0  0  0  0  0  0  0
   -4.3240   21.1200   -9.3990 Br  0  0  0  0  0  0  0  0  0  0  0  0
   -4.4640   19.6460  -11.8070 C   0  0  0  0  0  3  0  0  0  0  0  0
   -4.0120   18.7660  -12.7380 C   0  0  0  0  0  3  0  0  0  0  0  0
   -2.7880   18.1060  -12.6030 C   0  0  0  0  0  3  0  0  0  0  0  0
    1.1460   12.7790  -12.7970 C   0  0  0  0  0  0  0  0  0  0  0  0
   -0.0510   12.3380  -13.2640 N   0  0  0  0  0  0  0  0  0  0  0  0
   -0.1850   11.0800  -13.7770 C   0  0  0  0  0  3  0  0  0  0  0  0
    0.8550   10.2420  -13.8350 N   0  0  0  0  0  0  0  0  0  0  0  0
    2.0590   10.6090  -13.3940 C   0  0  0  0  0  0  0  0  0  0  0  0
    3.2410    9.9630  -13.3420 N   0  0  0  0  0  0  0  0  0  0  0  0
    2.1920   11.8820  -12.8760 C   0  0  0  0  0  0  0  0  0  0  0  0
    4.1000   10.8030  -12.8070 N   0  0  0  0  0  0  0  0  0  0  0  0
    3.5450    8.6050  -13.7840 C   0  0  0  0  0  1  0  0  0  0  0  0
    3.5010   11.9640  -12.5150 N   0  0  0  0  0  0  0  0  0  0  0  0
  1  5  1  6  0  0  0
  1  4  1  0  0  0  0
  2  3  1  0  0  0  0
  2  1  1  0  0  0  0
  3  4  1  0  0  0  0
  5  6  1  0  0  0  0
  6  7  1  0  0  0  0
  8  5  2  0  0  0  0
  9  6  1  0  0  0  0
  9 10  1  0  0  0  0
 11 10  2  0  0  0  0
 11 12  1  0  0  0  0
 13 11  1  0  0  0  0
 14 15  1  0  0  0  0
 14 13  2  0  0  0  0
 15  9  2  0  0  0  0
 16  3  1  0  0  0  0
 17 16  2  0  0  0  0
 18 17  1  0  0  0  0
 19 18  2  0  0  0  0
 19 20  1  0  0  0  0
 20 21  1  0  0  0  0
 20 22  2  0  0  0  0
 21 23  1  0  0  0  0
 22 16  1  0  0  0  0
 22 25  1  0  0  0  0
 23 25  2  0  0  0  0
 24 21  1  0  0  0  0
M  END
>  <Pose>
1

>  <Score>
-9.117

$$$$
