/Users/jonathanwahrer/Desktop/Msc/3_Semester/Drug_Design_Praktikum/waehrer_HTS_screening/HTS_experiment/out/docking_results/vina_output/6q9y/2195_docked.pdbqt
 OpenBabel03222220403D

 29 32  0  0  1  0  0  0  0  0999 V2000
    0.3550   12.5520  -13.5090 C   0  0  0  0  0  0  0  0  0  0  0  0
   -0.2950   13.7140  -13.4960 N   0  0  0  0  0  0  0  0  0  0  0  0
    0.1400   14.7640  -12.7770 C   0  0  0  0  0  0  0  0  0  0  0  0
   -0.3190   16.0320  -12.5890 N   0  0  0  0  0  0  0  0  0  0  0  0
    0.5290   16.6160  -11.7690 N   0  0  0  0  0  0  0  0  0  0  0  0
    1.5040   15.7990  -11.4190 N   0  0  0  0  0  0  0  0  0  0  0  0
    1.3010   14.6250  -12.0280 C   0  0  0  0  0  0  0  0  0  0  0  0
    1.9870   13.4220  -12.0320 C   0  0  0  0  0  0  0  0  0  0  0  0
    1.4700   12.4390  -12.7800 N   0  0  0  0  0  0  0  0  0  0  0  0
   -0.0920   11.3730  -14.2980 C   0  0  1  0  0  3  0  0  0  0  0  0
    0.5890   10.1160  -13.9820 C   0  0  0  0  0  2  0  0  0  0  0  0
   -0.0650    9.0960  -13.2950 N   0  0  0  0  0  0  0  0  0  0  0  0
   -1.2880    9.3090  -12.6740 C   0  0  0  0  0  2  0  0  0  0  0  0
   -1.8790   10.6830  -12.8000 C   0  0  0  0  0  2  0  0  0  0  0  0
   -1.5850   11.2360  -14.1490 C   0  0  0  0  0  2  0  0  0  0  0  0
    0.9590    7.9150  -12.6390 S   0  0  0  0  0  0  0  0  0  0  0  0
    1.0680    7.9870  -11.1570 O   0  0  0  0  0  0  0  0  0  0  0  0
    2.3230    8.0660  -13.2820 O   0  0  0  0  0  0  0  0  0  0  0  0
    0.4060    6.2630  -13.0890 C   0  0  0  0  0  1  0  0  0  0  0  0
    3.1490   13.2640  -11.2900 O   0  0  0  0  0  0  0  0  0  0  0  0
    3.9330   13.8800  -11.4400 H   0  0  0  0  0  0  0  0  0  0  0  0
   -1.4910   16.6040  -13.1740 C   0  0  0  0  0  2  0  0  0  0  0  0
   -2.0960   17.6840  -12.3560 C   0  0  0  0  0  0  0  0  0  0  0  0
   -3.2570   18.2670  -12.7980 C   0  0  0  0  0  0  0  0  0  0  0  0
   -3.8910   19.2870  -12.0920 C   0  0  0  0  0  3  0  0  0  0  0  0
   -3.9950   17.7360  -14.2950 Cl  0  0  0  0  0  0  0  0  0  0  0  0
   -3.3510   19.7420  -10.9080 C   0  0  0  0  0  3  0  0  0  0  0  0
   -2.1870   19.1610  -10.4580 C   0  0  0  0  0  3  0  0  0  0  0  0
   -1.5610   18.1410  -11.1730 C   0  0  0  0  0  3  0  0  0  0  0  0
  1  2  2  0  0  0  0
  1  9  1  0  0  0  0
  2  3  1  0  0  0  0
  3  4  1  0  0  0  0
  3  7  2  0  0  0  0
  4  5  1  0  0  0  0
  5  6  2  0  0  0  0
  7  6  1  0  0  0  0
  8  7  1  0  0  0  0
  8 20  1  0  0  0  0
  9  8  2  0  0  0  0
 10 15  1  0  0  0  0
 10 11  1  0  0  0  0
 10  1  1  1  0  0  0
 11 12  1  0  0  0  0
 12 13  1  0  0  0  0
 12 16  1  0  0  0  0
 14 13  1  0  0  0  0
 15 14  1  0  0  0  0
 16 17  2  0  0  0  0
 18 16  2  0  0  0  0
 19 16  1  0  0  0  0
 21 20  1  0  0  0  0
 22  4  1  0  0  0  0
 22 23  1  0  0  0  0
 23 29  1  0  0  0  0
 24 23  2  0  0  0  0
 24 25  1  0  0  0  0
 25 27  2  0  0  0  0
 26 24  1  0  0  0  0
 27 28  1  0  0  0  0
 29 28  2  0  0  0  0
M  END
>  <Pose>
1

>  <Score>
-9.795

$$$$
