/Users/jonathanwahrer/Desktop/Msc/3_Semester/Drug_Design_Praktikum/waehrer_HTS_screening/HTS_experiment/out/docking_results/vina_output/6q9y/2197_docked.pdbqt
 OpenBabel03222220413D

 28 31  0  0  1  0  0  0  0  0999 V2000
    2.5180    8.6020  -13.1670 N   0  0  0  0  0  0  0  0  0  0  0  0
    2.6790    9.8820  -12.4470 C   0  0  0  0  0  2  0  0  0  0  0  0
    2.9280   10.9310  -13.4660 C   0  0  2  0  0  3  0  0  0  0  0  0
    3.8410   10.7010  -14.4270 O   0  0  0  0  0  0  0  0  0  0  0  0
    4.2670    9.4530  -14.6720 C   0  0  0  0  0  2  0  0  0  0  0  0
    3.7770    8.3710  -13.7730 C   0  0  0  0  0  2  0  0  0  0  0  0
    3.2980   12.1750  -12.7300 C   0  0  0  0  0  0  0  0  0  0  0  0
    4.5200   12.3510  -12.4780 O   0  0  0  0  0  0  0  0  0  0  0  0
    2.3860   13.1580  -12.3010 N   0  0  0  0  0  0  0  0  0  0  0  0
    0.9530   13.0920  -12.5180 C   0  0  0  0  0  2  0  0  0  0  0  0
    2.8320   14.3600  -11.5820 C   0  0  0  0  0  2  0  0  0  0  0  0
    0.3360   14.2760  -11.8000 C   0  0  0  0  0  2  0  0  0  0  0  0
    0.8120   15.5490  -12.3080 N   0  0  0  0  0  0  0  0  0  0  0  0
    2.2380   15.5300  -12.3770 C   0  0  0  0  0  2  0  0  0  0  0  0
    0.1450   15.8180  -13.5410 C   0  0  0  0  0  2  0  0  0  0  0  0
   -1.3150   16.1450  -13.3840 C   0  0  0  0  0  3  0  0  0  0  0  0
   -1.7400   17.3830  -14.1720 C   0  0  0  0  0  2  0  0  0  0  0  0
   -1.7860   17.3370  -12.6770 C   0  0  0  0  0  2  0  0  0  0  0  0
    1.1290    8.5980  -14.1190 S   0  0  0  0  0  0  0  0  0  0  0  0
    0.3270    9.8580  -13.7630 O   0  0  0  0  0  0  0  0  0  0  0  0
    1.4090    8.7490  -15.5940 O   0  0  0  0  0  0  0  0  0  0  0  0
    0.0650    7.2650  -13.8030 C   0  0  0  0  0  0  0  0  0  0  0  0
    0.1920    6.4840  -12.6760 C   0  0  0  0  0  0  0  0  0  0  0  0
   -0.6140    5.3850  -12.4460 C   0  0  0  0  0  3  0  0  0  0  0  0
    1.3570    6.9090  -11.4080 Cl  0  0  0  0  0  0  0  0  0  0  0  0
   -1.5800    5.0510  -13.3610 C   0  0  0  0  0  3  0  0  0  0  0  0
   -1.7250    5.8280  -14.5010 C   0  0  0  0  0  3  0  0  0  0  0  0
   -0.9230    6.9120  -14.7240 C   0  0  0  0  0  3  0  0  0  0  0  0
  1  2  1  0  0  0  0
  3  7  1  1  0  0  0
  3  2  1  0  0  0  0
  4  3  1  0  0  0  0
  5  4  1  0  0  0  0
  5  6  1  0  0  0  0
  6  1  1  0  0  0  0
  7  8  2  0  0  0  0
  7  9  1  0  0  0  0
  9 11  1  0  0  0  0
 10  9  1  0  0  0  0
 10 12  1  0  0  0  0
 13 12  1  0  0  0  0
 14 13  1  0  0  0  0
 14 11  1  0  0  0  0
 15 16  1  0  0  0  0
 15 13  1  0  0  0  0
 16 18  1  0  0  0  0
 17 16  1  0  0  0  0
 17 18  1  0  0  0  0
 19 22  1  0  0  0  0
 19 20  2  0  0  0  0
 19  1  1  0  0  0  0
 21 19  2  0  0  0  0
 22 23  1  0  0  0  0
 23 24  2  0  0  0  0
 23 25  1  0  0  0  0
 26 24  1  0  0  0  0
 27 26  2  0  0  0  0
 28 27  1  0  0  0  0
 28 22  2  0  0  0  0
M  END
>  <Pose>
1

>  <Score>
-8.197

$$$$
