/Users/jonathanwahrer/Desktop/Msc/3_Semester/Drug_Design_Praktikum/waehrer_HTS_screening/HTS_experiment/out/docking_results/vina_output/6q9y/2210_docked.pdbqt
 OpenBabel03222220413D

 33 36  0  0  1  0  0  0  0  0999 V2000
   -1.2360   12.7440  -13.6180 C   0  0  0  0  0  2  0  0  0  0  0  0
   -1.1590   11.4090  -13.5500 C   0  0  1  0  0  3  0  0  0  0  0  0
   -0.0660   10.7170  -13.0400 O   0  0  0  0  0  0  0  0  0  0  0  0
   -0.3380    9.3430  -13.0950 C   0  0  0  0  0  0  0  0  0  0  0  0
   -1.5640    9.0770  -13.6240 C   0  0  0  0  0  0  0  0  0  0  0  0
   -2.0410    7.7930  -13.7480 C   0  0  0  0  0  3  0  0  0  0  0  0
   -1.2610    6.7220  -13.3250 C   0  0  0  0  0  3  0  0  0  0  0  0
   -0.0040    7.0020  -12.7860 C   0  0  0  0  0  0  0  0  0  0  0  0
    0.4630    8.2710  -12.6680 C   0  0  0  0  0  0  0  0  0  0  0  0
    0.7160    5.8760  -12.3870 O   0  0  0  0  0  1  0  0  0  0  0  0
   -2.1380   10.4180  -13.9430 C   0  0  0  0  0  0  0  0  0  0  0  0
   -3.2420   10.6440  -14.4550 O   0  0  0  0  0  0  0  0  0  0  0  0
    1.8470    8.6280  -12.2890 C   0  0  0  0  0  2  0  0  0  0  0  0
    2.7270    8.6840  -13.3600 N   0  0  0  0  0  4  0  0  0  0  0  0
    3.7040    9.8100  -13.2280 C   0  0  0  0  0  2  0  0  0  0  0  0
    5.0770    9.1490  -13.5120 C   0  0  0  0  0  2  0  0  0  0  0  0
    4.8690    7.8770  -14.1290 N   0  0  0  0  0  0  0  0  0  0  0  0
    3.9540    7.8610  -15.2020 C   0  0  0  0  0  2  0  0  0  0  0  0
    2.5510    8.4280  -14.7110 C   0  0  0  0  0  2  0  0  0  0  0  0
    3.4360    7.8520  -13.0130 H   0  0  0  0  0  0  0  0  0  0  0  0
    5.5400    6.7760  -13.6440 C   0  0  0  0  0  2  0  0  0  0  0  0
    4.8130    5.4950  -13.3900 C   0  0  0  0  0  2  0  0  0  0  0  0
    3.6410    5.7180  -12.6500 O   0  0  0  0  0  0  0  0  0  0  0  0
    3.2850    4.8260  -12.3290 H   0  0  0  0  0  0  0  0  0  0  0  0
   -0.0620   13.4630  -13.0920 C   0  0  0  0  0  0  0  0  0  0  0  0
    1.0690   12.7780  -12.8240 C   0  0  0  0  0  3  0  0  0  0  0  0
    2.1470   13.4590  -12.2350 C   0  0  0  0  0  0  0  0  0  0  0  0
    3.7580   12.5190  -11.8460 Br  0  0  0  0  0  0  0  0  0  0  0  0
    2.0770   14.7950  -11.9250 C   0  0  0  0  0  3  0  0  0  0  0  0
    0.9030   15.4630  -12.2080 C   0  0  0  0  0  3  0  0  0  0  0  0
   -0.1850   14.8030  -12.7990 C   0  0  0  0  0  0  0  0  0  0  0  0
   -1.3670   15.4720  -13.0830 O   0  0  0  0  0  0  0  0  0  0  0  0
   -1.5660   16.8420  -13.0490 C   0  0  0  0  0  1  0  0  0  0  0  0
  1 25  1  0  0  0  0
  2  1  1  1  0  0  0
  2  3  1  0  0  0  0
  4  3  1  0  0  0  0
  4  9  1  0  0  0  0
  5  4  2  0  0  0  0
  6  5  1  0  0  0  0
  6  7  2  0  0  0  0
  7  8  1  0  0  0  0
  8  9  2  0  0  0  0
  8 10  1  0  0  0  0
  9 13  1  0  0  0  0
 11  5  1  0  0  0  0
 11  2  1  0  0  0  0
 12 11  2  0  0  0  0
 14 15  1  0  0  0  0
 14 20  1  0  0  0  0
 14 13  1  0  0  0  0
 16 15  1  0  0  0  0
 17 21  1  0  0  0  0
 17 16  1  0  0  0  0
 18 19  1  0  0  0  0
 18 17  1  0  0  0  0
 19 14  1  0  0  0  0
 21 22  1  0  0  0  0
 22 23  1  0  0  0  0
 23 24  1  0  0  0  0
 25 26  2  0  0  0  0
 25 31  1  0  0  0  0
 26 27  1  0  0  0  0
 27 29  2  0  0  0  0
 27 28  1  0  0  0  0
 30 29  1  0  0  0  0
 31 30  2  0  0  0  0
 32 33  1  0  0  0  0
 32 31  1  0  0  0  0
M  END
>  <Pose>
1

>  <Score>
-7.977

$$$$
