/Users/jonathanwahrer/Desktop/Msc/3_Semester/Drug_Design_Praktikum/waehrer_HTS_screening/HTS_experiment/out/docking_results/vina_output/6q9y/2213_docked.pdbqt
 OpenBabel03222220413D

 31 34  0  0  0  0  0  0  0  0999 V2000
   -1.1450   13.9360  -12.3530 Cl  0  0  0  0  0  0  0  0  0  0  0  0
    0.1600   12.9030  -12.8940 C   0  0  0  0  0  0  0  0  0  0  0  0
   -0.1640   11.6260  -13.3750 C   0  0  0  0  0  0  0  0  0  0  0  0
    0.8360   10.7930  -13.8060 C   0  0  0  0  0  0  0  0  0  0  0  0
    2.1460   11.2800  -13.7380 C   0  0  0  0  0  2  0  0  0  0  0  0
    2.4520   12.5360  -13.2640 C   0  0  0  0  0  0  0  0  0  0  0  0
    1.4460   13.3790  -12.8280 C   0  0  0  0  0  3  0  0  0  0  0  0
    4.1080   13.1250  -13.1890 Cl  0  0  0  0  0  0  0  0  0  0  0  0
    0.5890    9.4390  -14.3240 C   0  0  0  0  0  0  0  0  0  0  0  0
   -0.8490    9.1220  -14.3130 C   0  0  0  0  0  0  0  0  0  0  0  0
   -1.8260    9.9630  -13.8820 C   0  0  0  0  0  0  0  0  0  0  0  0
   -3.1460    9.6190  -13.8920 N   0  0  0  0  0  0  0  0  0  0  0  0
   -3.4630    8.4090  -14.3470 C   0  0  0  0  0  0  0  0  0  0  0  0
   -4.6800    8.0430  -14.3760 O   0  0  0  0  0  0  0  0  0  0  0  0
   -2.5270    7.5430  -14.7850 N   0  0  0  0  0  0  0  0  0  0  0  0
   -1.2300    7.8700  -14.7800 C   0  0  0  0  0  0  0  0  0  0  0  0
   -0.3560    7.0630  -15.1880 O   0  0  0  0  0  0  0  0  0  0  0  0
   -2.9380    6.2340  -15.2720 C   0  0  0  0  0  1  0  0  0  0  0  0
   -4.1610   10.5380  -13.4250 C   0  0  0  0  0  1  0  0  0  0  0  0
   -1.4790   11.2030  -13.4180 O   0  0  0  0  0  0  0  0  0  0  0  0
    1.3850    8.4120  -13.5740 C   0  0  0  0  0  3  0  0  0  0  0  0
    2.5690    7.9120  -14.0590 C   0  0  0  0  0  0  0  0  0  0  0  0
    3.2970    6.9860  -13.4160 N   0  0  0  0  0  0  0  0  0  0  0  0
    3.0370    8.3840  -15.2680 O   0  0  0  0  0  0  0  0  0  0  0  0
    2.8390    6.5260  -12.2350 C   0  0  0  0  0  0  0  0  0  0  0  0
    4.5460    6.4810  -13.9530 C   0  0  0  0  0  1  0  0  0  0  0  0
    3.5330    5.6520  -11.6380 O   0  0  0  0  0  0  0  0  0  0  0  0
    1.6840    6.9870  -11.7230 N   0  0  0  0  0  0  0  0  0  0  0  0
    0.9440    7.9130  -12.3490 C   0  0  0  0  0  0  0  0  0  0  0  0
    1.2350    6.4610  -10.4550 C   0  0  0  0  0  1  0  0  0  0  0  0
   -0.1360    8.3620  -11.8960 O   0  0  0  0  0  0  0  0  0  0  0  0
  2  7  1  0  0  0  0
  2  1  1  0  0  0  0
  3  2  2  0  0  0  0
  4  5  1  0  0  0  0
  4  3  1  0  0  0  0
  5  6  1  0  0  0  0
  6  8  1  0  0  0  0
  6  7  2  0  0  0  0
  9 10  1  0  0  0  0
  9  4  2  0  0  0  0
  9 21  1  0  0  0  0
 10 11  2  0  0  0  0
 11 20  1  0  0  0  0
 12 11  1  0  0  0  0
 12 19  1  0  0  0  0
 13 12  1  0  0  0  0
 14 13  2  0  0  0  0
 15 16  1  0  0  0  0
 15 13  1  0  0  0  0
 16 10  1  0  0  0  0
 17 16  2  0  0  0  0
 18 15  1  0  0  0  0
 20  3  1  0  0  0  0
 21 29  1  0  0  0  0
 22 21  1  0  0  0  0
 22 23  1  0  0  0  0
 23 25  1  0  0  0  0
 24 22  2  0  0  0  0
 25 28  1  0  0  0  0
 25 27  2  0  0  0  0
 26 23  1  0  0  0  0
 28 30  1  0  0  0  0
 29 31  2  0  0  0  0
 29 28  1  0  0  0  0
M  END
>  <Pose>
1

>  <Score>
-3.299

$$$$
