/Users/jonathanwahrer/Desktop/Msc/3_Semester/Drug_Design_Praktikum/waehrer_HTS_screening/HTS_experiment/out/docking_results/vina_output/6q9y/2214_docked.pdbqt
 OpenBabel03222220413D

 34 38  0  0  1  0  0  0  0  0999 V2000
   -0.6920   15.4780  -13.7900 Cl  0  0  0  0  0  0  0  0  0  0  0  0
    0.5330   14.3870  -13.1780 C   0  0  0  0  0  0  0  0  0  0  0  0
    0.4990   13.0410  -13.4190 C   0  0  0  0  0  3  0  0  0  0  0  0
    1.4980   12.2060  -12.9110 C   0  0  0  0  0  0  0  0  0  0  0  0
    2.4950   12.7760  -12.1760 C   0  0  0  0  0  0  0  0  0  0  0  0
    2.5320   14.1580  -11.9270 C   0  0  0  0  0  3  0  0  0  0  0  0
    1.5550   14.9730  -12.4240 C   0  0  0  0  0  3  0  0  0  0  0  0
    3.3950   11.7540  -11.7600 N   0  0  0  0  0  0  0  0  0  0  0  0
    2.9530   10.5100  -12.2460 C   0  0  0  0  0  0  0  0  0  0  0  0
    3.5520    9.4080  -12.0340 O   0  0  0  0  0  0  0  0  0  0  0  0
    1.7220   10.7540  -13.0060 C   0  0  1  0  0  0  0  0  0  0  0  0
    0.5690   10.1160  -12.4110 N   0  0  0  0  0  0  0  0  0  0  0  0
    0.0510    9.1190  -13.2940 C   0  0  2  0  0  3  0  0  0  0  0  0
    1.0520    8.9860  -14.3720 C   0  0  1  0  0  3  0  0  0  0  0  0
    1.8160   10.2790  -14.4360 C   0  0  2  0  0  3  0  0  0  0  0  0
    3.1780    9.8310  -14.8020 C   0  0  0  0  0  0  0  0  0  0  0  0
    4.1150   10.5050  -15.2980 O   0  0  0  0  0  0  0  0  0  0  0  0
    3.3260    8.4270  -14.5030 N   0  0  0  0  0  0  0  0  0  0  0  0
    2.0980    8.0010  -13.9250 C   0  0  0  0  0  0  0  0  0  0  0  0
    1.9590    6.9930  -13.1930 O   0  0  0  0  0  0  0  0  0  0  0  0
    4.2730   11.8860  -11.1730 H   0  0  0  0  0  0  0  0  0  0  0  0
   -0.2040   10.7850  -12.1990 H   0  0  0  0  0  0  0  0  0  0  0  0
   -1.3440    9.4260  -13.7690 C   0  0  0  0  0  2  0  0  0  0  0  0
   -2.1790    8.2650  -14.0070 C   0  0  0  0  0  0  0  0  0  0  0  0
   -3.3550    8.4070  -14.4050 O   0  0  0  0  0  0  0  0  0  0  0  0
   -1.6860    6.9580  -13.7960 N   0  0  0  0  0  0  0  0  0  0  0  0
   -1.7680    6.2490  -14.5620 H   0  0  0  0  0  0  0  0  0  0  0  0
   -1.2380    6.6370  -12.9180 H   0  0  0  0  0  0  0  0  0  0  0  0
    4.5080    7.6280  -14.7500 C   0  0  0  0  0  2  0  0  0  0  0  0
    5.3340    7.3940  -13.5150 C   0  0  1  0  0  3  0  0  0  0  0  0
    4.9960    6.1650  -12.9540 O   0  0  0  0  0  0  0  0  0  0  0  0
    5.8460    5.2250  -13.4900 C   0  0  0  0  0  2  0  0  0  0  0  0
    7.1380    5.9180  -13.8620 C   0  0  0  0  0  2  0  0  0  0  0  0
    6.8040    7.3920  -13.7430 C   0  0  0  0  0  2  0  0  0  0  0  0
  1  2  1  0  0  0  0
  2  7  1  0  0  0  0
  3  2  2  0  0  0  0
  3  4  1  0  0  0  0
  4  5  2  0  0  0  0
  5  6  1  0  0  0  0
  5  8  1  0  0  0  0
  7  6  2  0  0  0  0
  8 21  1  0  0  0  0
  9 10  2  0  0  0  0
  9  8  1  0  0  0  0
 11  4  1  6  0  0  0
 11 12  1  0  0  0  0
 11  9  1  0  0  0  0
 12 22  1  0  0  0  0
 13 23  1  6  0  0  0
 13 12  1  0  0  0  0
 14 19  1  1  0  0  0
 14 13  1  0  0  0  0
 15 16  1  1  0  0  0
 15 14  1  0  0  0  0
 15 11  1  0  0  0  0
 16 18  1  0  0  0  0
 17 16  2  0  0  0  0
 18 19  1  0  0  0  0
 19 20  2  0  0  0  0
 24 26  1  0  0  0  0
 24 23  1  0  0  0  0
 25 24  2  0  0  0  0
 26 28  1  0  0  0  0
 27 26  1  0  0  0  0
 29 18  1  0  0  0  0
 30 29  1  6  0  0  0
 30 31  1  0  0  0  0
 32 31  1  0  0  0  0
 33 34  1  0  0  0  0
 33 32  1  0  0  0  0
 34 30  1  0  0  0  0
M  END
>  <Pose>
1

>  <Score>
-6.456

$$$$
