/Users/jonathanwahrer/Desktop/Msc/3_Semester/Drug_Design_Praktikum/waehrer_HTS_screening/HTS_experiment/out/docking_results/vina_output/6q9y/2225_docked.pdbqt
 OpenBabel03222220413D

 29 32  0  0  0  0  0  0  0  0999 V2000
    2.2310    6.9570  -12.9960 C   0  0  0  0  0  0  0  0  0  0  0  0
    3.2370    6.5290  -12.2840 O   0  0  0  0  0  0  0  0  0  0  0  0
    2.5540    7.7700  -14.0700 N   0  0  0  0  0  0  0  0  0  0  0  0
    3.9990    8.0830  -14.2920 C   0  0  0  0  0  2  0  0  0  0  0  0
    4.0510    9.5420  -14.6710 C   0  0  0  0  0  2  0  0  0  0  0  0
    2.8720   10.2810  -14.2560 N   0  0  0  0  0  0  0  0  0  0  0  0
    1.6100    9.8750  -14.8160 C   0  0  0  0  0  2  0  0  0  0  0  0
    1.6920    8.3760  -15.0510 C   0  0  0  0  0  2  0  0  0  0  0  0
    2.9890   11.3460  -13.3380 C   0  0  0  0  0  0  0  0  0  0  0  0
    1.9820   12.2470  -13.1680 N   0  0  0  0  0  0  0  0  0  0  0  0
    2.0440   13.2600  -12.3160 C   0  0  0  0  0  0  0  0  0  0  0  0
    3.1800   13.3910  -11.5830 N   0  0  0  0  0  0  0  0  0  0  0  0
    4.1990   12.5580  -11.6920 C   0  0  0  0  0  3  0  0  0  0  0  0
    4.1280   11.4970  -12.5880 C   0  0  0  0  0  3  0  0  0  0  0  0
    1.0050   14.2060  -12.1280 N   0  0  0  0  0  0  0  0  0  0  0  0
   -0.2780   14.0190  -12.7970 C   0  0  0  0  0  2  0  0  0  0  0  0
   -0.5400   15.3350  -13.5350 C   0  0  0  0  0  2  0  0  0  0  0  0
   -0.6010   16.3710  -12.6420 O   0  0  0  0  0  0  0  0  0  0  0  0
    0.5640   16.6120  -11.9530 C   0  0  0  0  0  2  0  0  0  0  0  0
    1.1380   15.3760  -11.2970 C   0  0  0  0  0  2  0  0  0  0  0  0
    0.9180    6.4840  -12.5160 C   0  0  0  0  0  2  0  0  0  0  0  0
   -0.2070    6.7920  -13.0540 O   0  0  0  0  0  0  0  0  0  0  0  0
   -1.3430    7.1330  -13.5710 C   0  0  0  0  0  0  0  0  0  0  0  0
   -1.8530    8.4490  -13.5830 C   0  0  0  0  0  3  0  0  0  0  0  0
   -3.0580    8.7440  -14.1450 C   0  0  0  0  0  3  0  0  0  0  0  0
   -3.8510    7.7850  -14.7320 C   0  0  0  0  0  0  0  0  0  0  0  0
   -5.3940    8.1800  -15.4470 Cl  0  0  0  0  0  0  0  0  0  0  0  0
   -3.3710    6.4950  -14.7300 C   0  0  0  0  0  3  0  0  0  0  0  0
   -2.1700    6.1640  -14.1770 C   0  0  0  0  0  3  0  0  0  0  0  0
  1 21  1  0  0  0  0
  1  2  2  0  0  0  0
  3  1  1  0  0  0  0
  4  3  1  0  0  0  0
  5  4  1  0  0  0  0
  5  6  1  0  0  0  0
  6  9  1  0  0  0  0
  7  6  1  0  0  0  0
  8  7  1  0  0  0  0
  8  3  1  0  0  0  0
  9 10  1  0  0  0  0
  9 14  2  0  0  0  0
 10 11  2  0  0  0  0
 11 15  1  0  0  0  0
 11 12  1  0  0  0  0
 13 12  2  0  0  0  0
 14 13  1  0  0  0  0
 15 20  1  0  0  0  0
 16 15  1  0  0  0  0
 17 16  1  0  0  0  0
 17 18  1  0  0  0  0
 18 19  1  0  0  0  0
 19 20  1  0  0  0  0
 22 21  1  0  0  0  0
 23 22  1  0  0  0  0
 24 23  1  0  0  0  0
 25 24  2  0  0  0  0
 26 28  2  0  0  0  0
 26 25  1  0  0  0  0
 27 26  1  0  0  0  0
 28 29  1  0  0  0  0
 29 23  2  0  0  0  0
M  END
>  <Pose>
1

>  <Score>
-8.145

$$$$
