/Users/jonathanwahrer/Desktop/Msc/3_Semester/Drug_Design_Praktikum/waehrer_HTS_screening/HTS_experiment/out/docking_results/vina_output/6q9y/2267_docked.pdbqt
 OpenBabel03222220423D

 27 30  0  0  1  0  0  0  0  0999 V2000
    1.6380    8.8920  -13.7650 N   0  0  0  0  0  0  0  0  0  0  0  0
    2.9800    8.6980  -13.4430 C   0  0  0  0  0  2  0  0  0  0  0  0
    3.7820    9.9770  -13.3810 C   0  0  0  0  0  2  0  0  0  0  0  0
    2.9730   11.1660  -13.0250 C   0  0  2  0  0  3  0  0  0  0  0  0
    1.6940   11.2200  -13.5240 C   0  0  0  0  0  0  0  0  0  0  0  0
    0.8910   12.2570  -13.2570 N   0  0  0  0  0  0  0  0  0  0  0  0
    1.3550   13.2820  -12.4700 C   0  0  1  0  0  3  0  0  0  0  0  0
    2.6140   13.2110  -11.9900 N   0  0  0  0  0  0  0  0  0  0  0  0
    2.8190   14.3150  -11.2670 N   0  0  0  0  0  0  0  0  0  0  0  0
    1.7330   15.0790  -11.2740 C   0  0  0  0  0  3  0  0  0  0  0  0
    0.7570   14.4480  -12.0430 C   0  0  0  0  0  3  0  0  0  0  0  0
    3.4590   12.2000  -12.2260 C   0  0  0  0  0  0  0  0  0  0  0  0
    4.6290   12.1350  -11.7780 O   0  0  0  0  0  0  0  0  0  0  0  0
    1.2200   10.1050  -14.3610 C   0  0  0  0  0  2  0  0  0  0  0  0
    3.7010   14.5570  -10.7610 H   0  0  0  0  0  0  0  0  0  0  0  0
    0.4770    7.9280  -13.0530 S   0  0  0  0  0  0  0  0  0  0  0  0
    0.7080    6.4870  -13.4470 O   0  0  0  0  0  0  0  0  0  0  0  0
    0.5620    7.9840  -11.5560 O   0  0  0  0  0  0  0  0  0  0  0  0
   -1.1670    8.3150  -13.5090 C   0  0  0  0  0  0  0  0  0  0  0  0
   -1.9570    7.4630  -14.2620 C   0  0  0  0  0  3  0  0  0  0  0  0
   -3.2550    7.8220  -14.5950 C   0  0  0  0  0  0  0  0  0  0  0  0
   -3.8110    9.0170  -14.2020 C   0  0  0  0  0  0  0  0  0  0  0  0
   -4.2410    6.7320  -15.5490 Cl  0  0  0  0  0  0  0  0  0  0  0  0
   -3.0250    9.8650  -13.4520 C   0  0  0  0  0  3  0  0  0  0  0  0
   -1.7370    9.5090  -13.1210 C   0  0  0  0  0  3  0  0  0  0  0  0
   -5.1280    9.3590  -14.5500 O   0  0  0  0  0  0  0  0  0  0  0  0
   -6.0040    9.8680  -13.5620 C   0  0  0  0  0  1  0  0  0  0  0  0
  1  2  1  0  0  0  0
  1 16  1  0  0  0  0
  2  3  1  0  0  0  0
  4  3  1  6  0  0  0
  4 12  1  0  0  0  0
  5  6  2  0  0  0  0
  5  4  1  0  0  0  0
  6  7  1  0  0  0  0
  7 11  1  6  0  0  0
  7  8  1  0  0  0  0
  8  9  1  0  0  0  0
  9 15  1  0  0  0  0
 10  9  1  0  0  0  0
 11 10  2  0  0  0  0
 12  8  1  0  0  0  0
 12 13  2  0  0  0  0
 14  1  1  0  0  0  0
 14  5  1  0  0  0  0
 16 18  2  0  0  0  0
 17 16  2  0  0  0  0
 19 25  1  0  0  0  0
 19 16  1  0  0  0  0
 20 19  2  0  0  0  0
 21 20  1  0  0  0  0
 21 22  2  0  0  0  0
 22 24  1  0  0  0  0
 23 21  1  0  0  0  0
 24 25  2  0  0  0  0
 26 22  1  0  0  0  0
 26 27  1  0  0  0  0
M  END
>  <Pose>
1

>  <Score>
-9.240

$$$$
