/Users/jonathanwahrer/Desktop/Msc/3_Semester/Drug_Design_Praktikum/waehrer_HTS_screening/HTS_experiment/out/docking_results/vina_output/6q9y/2270_docked.pdbqt
 OpenBabel03222220423D

 22 24  0  0  1  0  0  0  0  0999 V2000
   -0.7260   15.9620  -13.4290 C   0  0  0  0  0  0  0  0  0  0  0  0
   -0.7930   16.3130  -14.6410 O   0  0  0  0  0  0  0  0  0  0  0  0
   -1.5610   16.5570  -12.4350 N   0  0  0  0  0  0  0  0  0  0  0  0
   -1.4710   16.2400  -11.4700 H   0  0  0  0  0  0  0  0  0  0  0  0
    0.2150   14.9400  -13.0480 C   0  0  0  0  0  0  0  0  0  0  0  0
   -0.0520   13.6280  -13.4530 C   0  0  0  0  0  3  0  0  0  0  0  0
    0.7690   12.5650  -13.1490 C   0  0  0  0  0  0  0  0  0  0  0  0
    1.9080   12.8030  -12.4110 C   0  0  0  0  0  0  0  0  0  0  0  0
    2.9740   11.4590  -12.0090 Cl  0  0  0  0  0  0  0  0  0  0  0  0
    2.1920   14.0970  -11.9990 C   0  0  0  0  0  3  0  0  0  0  0  0
    1.3460   15.1660  -12.3170 C   0  0  0  0  0  3  0  0  0  0  0  0
    0.4770   11.2730  -13.5650 O   0  0  0  0  0  0  0  0  0  0  0  0
   -0.8180   10.7250  -13.4120 C   0  0  0  0  0  1  0  0  0  0  0  0
   -2.4850   17.5690  -12.8550 C   0  0  0  0  0  2  0  0  0  0  0  0
   -2.7000   18.7090  -11.9410 C   0  0  2  0  0  3  0  0  0  0  0  0
   -2.8350   18.4180  -10.5460 N   0  0  1  0  0  0  0  0  0  0  0  0
   -2.1490   19.5350   -9.8520 C   0  0  0  0  0  2  0  0  0  0  0  0
   -4.1880   18.4920  -10.0350 C   0  0  0  0  0  2  0  0  0  0  0  0
   -2.6850   20.7890  -10.5530 C   0  0  0  0  0  2  0  0  0  0  0  0
   -3.9660   20.5530  -11.1870 N   0  0  1  0  0  0  0  0  0  0  0  0
   -3.8590   19.6190  -12.3110 C   0  0  0  0  0  2  0  0  0  0  0  0
   -4.8000   19.8770  -10.2090 C   0  0  0  0  0  2  0  0  0  0  0  0
  1  5  1  0  0  0  0
  1  3  1  0  0  0  0
  2  1  2  0  0  0  0
  3  4  1  0  0  0  0
  5 11  1  0  0  0  0
  6  7  1  0  0  0  0
  6  5  2  0  0  0  0
  7  8  2  0  0  0  0
  8  9  1  0  0  0  0
  8 10  1  0  0  0  0
 11 10  2  0  0  0  0
 12 13  1  0  0  0  0
 12  7  1  0  0  0  0
 14  3  1  0  0  0  0
 15 14  1  6  0  0  0
 15 16  1  0  0  0  0
 16 18  1  1  0  0  0
 16 17  1  0  0  0  0
 19 17  1  0  0  0  0
 20 21  1  6  0  0  0
 20 19  1  0  0  0  0
 20 22  1  0  0  0  0
 21 15  1  0  0  0  0
 22 18  1  0  0  0  0
M  END
>  <Pose>
1

>  <Score>
-7.051

$$$$
