/Users/jonathanwahrer/Desktop/Msc/3_Semester/Drug_Design_Praktikum/waehrer_HTS_screening/HTS_experiment/out/docking_results/vina_output/6q9y/2271_docked.pdbqt
 OpenBabel03222220423D

 27 30  0  0  1  0  0  0  0  0999 V2000
    2.4870    8.9200  -14.9990 C   0  0  2  0  0  0  0  0  0  0  0  0
    1.6150    9.6520  -14.2240 N   0  0  0  0  0  4  0  0  0  0  0  0
    0.8200    8.6670  -13.5200 C   0  0  0  0  0  0  0  0  0  0  0  0
    0.3820    8.5190  -12.3120 C   0  0  0  0  0  3  0  0  0  0  0  0
   -0.4340    7.3750  -11.8660 C   0  0  0  0  0  2  0  0  0  0  0  0
   -0.7260    6.3480  -12.9000 C   0  0  0  0  0  2  0  0  0  0  0  0
   -0.6140    6.8320  -14.3070 C   0  0  0  0  0  2  0  0  0  0  0  0
    0.5290    7.6970  -14.5100 N   0  0  0  0  0  0  0  0  0  0  0  0
    1.5330    7.8280  -15.5620 C   0  0  0  0  0  2  0  0  0  0  0  0
    0.8750   10.0570  -14.9070 H   0  0  0  0  0  0  0  0  0  0  0  0
    3.6250    8.1940  -14.4730 C   0  0  0  0  0  0  0  0  0  0  0  0
    4.9010    8.6240  -14.7840 C   0  0  0  0  0  3  0  0  0  0  0  0
    5.9930    7.9500  -14.3220 C   0  0  0  0  0  3  0  0  0  0  0  0
    5.8780    6.8150  -13.5300 C   0  0  0  0  0  0  0  0  0  0  0  0
    7.2580    5.9340  -12.9260 Cl  0  0  0  0  0  0  0  0  0  0  0  0
    4.6140    6.3900  -13.2230 C   0  0  0  0  0  3  0  0  0  0  0  0
    3.5040    7.0730  -13.6910 C   0  0  0  0  0  3  0  0  0  0  0  0
    2.8720    9.6260  -16.1740 O   0  0  0  0  0  0  0  0  0  0  0  0
    2.1010    9.5480  -16.7930 H   0  0  0  0  0  0  0  0  0  0  0  0
    1.9840   10.7240  -13.4260 C   0  0  0  0  0  0  0  0  0  0  0  0
    3.0820   10.8180  -12.6400 C   0  0  0  0  0  3  0  0  0  0  0  0
    3.3250   11.9740  -11.9010 C   0  0  0  0  0  3  0  0  0  0  0  0
    2.4760   13.0680  -11.9300 C   0  0  0  0  0  0  0  0  0  0  0  0
    1.3670   12.9430  -12.7400 C   0  0  0  0  0  3  0  0  0  0  0  0
    1.1000   11.8210  -13.4780 C   0  0  0  0  0  3  0  0  0  0  0  0
    2.7550   14.1980  -11.1790 O   0  0  0  0  0  0  0  0  0  0  0  0
    1.8500   15.2730  -11.1900 C   0  0  0  0  0  1  0  0  0  0  0  0
  1 18  1  6  0  0  0
  1 11  1  0  0  0  0
  1  2  1  0  0  0  0
  2  3  1  0  0  0  0
  2 20  1  0  0  0  0
  3  4  2  0  0  0  0
  4  5  1  0  0  0  0
  6  5  1  0  0  0  0
  7  6  1  0  0  0  0
  8  7  1  0  0  0  0
  8  3  1  0  0  0  0
  9  1  1  0  0  0  0
  9  8  1  0  0  0  0
 10  2  1  0  0  0  0
 11 17  1  0  0  0  0
 12 11  2  0  0  0  0
 12 13  1  0  0  0  0
 13 14  2  0  0  0  0
 14 16  1  0  0  0  0
 14 15  1  0  0  0  0
 17 16  2  0  0  0  0
 19 18  1  0  0  0  0
 20 21  1  0  0  0  0
 21 22  2  0  0  0  0
 23 22  1  0  0  0  0
 23 26  1  0  0  0  0
 24 23  2  0  0  0  0
 25 20  2  0  0  0  0
 25 24  1  0  0  0  0
 27 26  1  0  0  0  0
M  END
>  <Pose>
1

>  <Score>
-7.269

$$$$
