/Users/jonathanwahrer/Desktop/Msc/3_Semester/Drug_Design_Praktikum/waehrer_HTS_screening/HTS_experiment/out/docking_results/vina_output/6q9y/2272_docked.pdbqt
 OpenBabel03222220433D

 29 32  0  0  0  0  0  0  0  0999 V2000
   -0.0490   15.1610  -13.0800 C   0  0  0  0  0  0  0  0  0  0  0  0
    0.9390   15.9560  -13.3160 O   0  0  0  0  0  0  0  0  0  0  0  0
    0.2960   13.8480  -12.7540 N   0  0  0  0  0  0  0  0  0  0  0  0
   -0.6620   12.7310  -12.6590 C   0  0  0  0  0  2  0  0  0  0  0  0
   -0.2220   11.9390  -13.9290 C   0  0  0  0  0  2  0  0  0  0  0  0
    1.1190   11.4270  -13.6830 N   0  0  0  0  0  0  0  0  0  0  0  0
    1.9500   12.0390  -12.8000 C   0  0  0  0  0  2  0  0  0  0  0  0
    1.6390   13.4590  -12.4210 C   0  0  0  0  0  2  0  0  0  0  0  0
   -1.3520   15.7740  -13.1720 C   0  0  0  0  0  2  0  0  0  0  0  0
   -1.5240   17.2150  -13.3330 C   0  0  0  0  0  2  0  0  0  0  0  0
   -1.9000   17.9790  -12.1560 N   0  0  0  0  0  0  0  0  0  0  0  0
   -2.9720   18.7190  -11.8860 C   0  0  0  0  0  0  0  0  0  0  0  0
   -2.8360   19.3210  -10.6570 C   0  0  0  0  0  0  0  0  0  0  0  0
   -4.1460   18.9370  -12.6280 C   0  0  0  0  0  3  0  0  0  0  0  0
   -3.8290   20.1500  -10.1180 C   0  0  0  0  0  3  0  0  0  0  0  0
   -1.6720   18.9280  -10.2110 O   0  0  0  0  0  0  0  0  0  0  0  0
   -4.9750   20.3710  -10.8310 C   0  0  0  0  0  0  0  0  0  0  0  0
   -6.2400   21.3850  -10.1830 Cl  0  0  0  0  0  0  0  0  0  0  0  0
   -5.1060   19.7610  -12.0640 C   0  0  0  0  0  3  0  0  0  0  0  0
   -1.0780   18.1310  -11.0640 C   0  0  0  0  0  0  0  0  0  0  0  0
    0.0560   17.5870  -10.9250 O   0  0  0  0  0  0  0  0  0  0  0  0
    1.4640   10.6070  -14.7460 C   0  0  0  0  0  2  0  0  0  0  0  0
    1.7640    9.1780  -14.2910 C   0  0  0  0  0  0  0  0  0  0  0  0
    2.8370    8.6880  -14.8130 O   0  0  0  0  0  0  0  0  0  0  0  0
    0.9640    8.5400  -13.4450 N   0  0  0  0  0  0  0  0  0  0  0  0
    1.8450    7.5130  -13.3250 H   0  0  0  0  0  0  0  0  0  0  0  0
    0.1110    7.8600  -12.5450 C   0  0  0  0  0  3  0  0  0  0  0  0
    0.8380    7.2500  -11.2860 C   0  0  0  0  0  2  0  0  0  0  0  0
    0.3360    6.3780  -12.3320 C   0  0  0  0  0  2  0  0  0  0  0  0
  1  3  1  0  0  0  0
  2  1  2  0  0  0  0
  3  4  1  0  0  0  0
  3  8  1  0  0  0  0
  5  6  1  0  0  0  0
  5  4  1  0  0  0  0
  6  7  1  0  0  0  0
  7  8  1  0  0  0  0
  9  1  1  0  0  0  0
 10  9  1  0  0  0  0
 10 11  1  0  0  0  0
 11 12  1  0  0  0  0
 11 20  1  0  0  0  0
 12 13  1  0  0  0  0
 13 16  1  0  0  0  0
 13 15  2  0  0  0  0
 14 19  1  0  0  0  0
 14 12  2  0  0  0  0
 17 18  1  0  0  0  0
 17 15  1  0  0  0  0
 19 17  2  0  0  0  0
 20 21  2  0  0  0  0
 20 16  1  0  0  0  0
 22 23  1  0  0  0  0
 22  6  1  0  0  0  0
 23 25  1  0  0  0  0
 24 23  2  0  0  0  0
 25 26  1  0  0  0  0
 25 27  1  0  0  0  0
 27 29  1  0  0  0  0
 27 28  1  0  0  0  0
 29 28  1  0  0  0  0
M  END
>  <Pose>
1

>  <Score>
-9.185

$$$$
