/Users/jonathanwahrer/Desktop/Msc/3_Semester/Drug_Design_Praktikum/waehrer_HTS_screening/HTS_experiment/out/docking_results/vina_output/6q9y/2275_docked.pdbqt
 OpenBabel03222220433D

 21 23  0  0  1  0  0  0  0  0999 V2000
   -5.1440    7.5490  -15.7920 Cl  0  0  0  0  0  0  0  0  0  0  0  0
   -3.7580    8.0690  -14.8600 C   0  0  0  0  0  0  0  0  0  0  0  0
   -3.7480    9.3170  -14.2730 C   0  0  0  0  0  0  0  0  0  0  0  0
   -2.6260    9.6580  -13.5510 C   0  0  0  0  0  0  0  0  0  0  0  0
   -2.5130   10.7810  -12.9700 O   0  0  0  0  0  0  0  0  0  0  0  0
   -1.6080    8.7900  -13.4440 N   0  0  0  0  0  0  0  0  0  0  0  0
   -1.5750    7.5890  -13.9860 N   0  0  0  0  0  0  0  0  0  0  0  0
   -0.4510    6.6800  -13.8430 C   0  0  1  0  0  3  0  0  0  0  0  0
    0.7510    7.1170  -14.6540 C   0  0  0  0  0  2  0  0  0  0  0  0
    1.5350    8.1830  -13.9090 C   0  0  0  0  0  2  0  0  0  0  0  0
    0.6910    9.4110  -13.6570 C   0  0  0  0  0  2  0  0  0  0  0  0
   -0.4200    9.1760  -12.6670 C   0  0  2  0  0  3  0  0  0  0  0  0
   -0.0630    7.9910  -11.8430 C   0  0  0  0  0  3  0  0  0  0  0  0
   -0.0300    6.7840  -12.3970 C   0  0  0  0  0  3  0  0  0  0  0  0
   -2.6770    7.2270  -14.7090 C   0  0  0  0  0  0  0  0  0  0  0  0
   -2.6730    6.0680  -15.2460 O   0  0  0  0  0  0  0  0  0  0  0  0
   -4.8260   10.2400  -14.3910 N   0  0  0  0  0  0  0  0  0  0  0  0
   -4.5580   11.1660  -14.8430 H   0  0  0  0  0  0  0  0  0  0  0  0
   -6.1710    9.9850  -13.9510 C   0  0  0  0  0  3  0  0  0  0  0  0
   -6.2630    9.8740  -12.4390 C   0  0  0  0  0  1  0  0  0  0  0  0
   -7.1720   10.9950  -14.4010 C   0  0  0  0  0  1  0  0  0  0  0  0
  1  2  1  0  0  0  0
  2 15  1  0  0  0  0
  2  3  2  0  0  0  0
  3  4  1  0  0  0  0
  4  6  1  0  0  0  0
  4  5  2  0  0  0  0
  6 12  1  0  0  0  0
  7  8  1  0  0  0  0
  7  6  1  0  0  0  0
  8  9  1  6  0  0  0
  8 14  1  0  0  0  0
  9 10  1  0  0  0  0
 10 11  1  0  0  0  0
 12 11  1  6  0  0  0
 12 13  1  0  0  0  0
 14 13  2  0  0  0  0
 15  7  1  0  0  0  0
 16 15  2  0  0  0  0
 17  3  1  0  0  0  0
 17 19  1  0  0  0  0
 18 17  1  0  0  0  0
 19 20  1  0  0  0  0
 21 19  1  0  0  0  0
M  END
>  <Pose>
1

>  <Score>
-7.106

$$$$
