/Users/jonathanwahrer/Desktop/Msc/3_Semester/Drug_Design_Praktikum/waehrer_HTS_screening/HTS_experiment/out/docking_results/vina_output/6q9y/2281_docked.pdbqt
 OpenBabel03222220433D

 34 37  0  0  1  0  0  0  0  0999 V2000
    1.6660    7.0670  -12.3320 N   0  0  0  0  0  0  0  0  0  0  0  0
    0.4660    6.3520  -12.2110 C   0  0  0  0  0  2  0  0  0  0  0  0
   -0.6620    7.2360  -12.8580 C   0  0  0  0  0  2  0  0  0  0  0  0
   -0.2650    8.3300  -13.5940 N   0  0  0  0  0  0  0  0  0  0  0  0
    0.9880    8.9680  -13.2920 C   0  0  0  0  0  2  0  0  0  0  0  0
    1.4890    8.5130  -11.8820 C   0  0  0  0  0  2  0  0  0  0  0  0
    2.8960    6.8260  -12.9240 C   0  0  2  0  0  3  0  0  0  0  0  0
    3.6290    5.7260  -12.8280 C   0  0  1  0  0  3  0  0  0  0  0  0
    2.7900    4.2160  -12.2880 Cl  0  0  0  0  0  0  0  0  0  0  0  0
    4.9900    5.6650  -13.1310 C   0  0  0  0  0  0  0  0  0  0  0  0
    5.5910    6.7450  -13.5470 N   0  0  0  0  0  0  0  0  0  0  0  0
    5.5760    4.5420  -12.9630 O   0  0  0  0  0  0  0  0  0  0  0  0
    4.8720    7.8900  -13.6770 N   0  0  0  0  0  0  0  0  0  0  0  0
    3.6250    8.0190  -13.4200 C   0  0  0  0  0  3  0  0  0  0  0  0
    7.0460    6.8690  -13.6270 C   0  0  0  0  0  0  0  0  0  0  0  0
    7.8430    6.9000  -12.5290 C   0  0  0  0  0  3  0  0  0  0  0  0
    9.2160    6.8950  -12.6380 C   0  0  0  0  0  3  0  0  0  0  0  0
    9.8300    6.8570  -13.8890 C   0  0  0  0  0  3  0  0  0  0  0  0
    8.9860    6.8340  -15.0000 C   0  0  0  0  0  3  0  0  0  0  0  0
    7.6520    6.8400  -14.8700 C   0  0  0  0  0  3  0  0  0  0  0  0
   -1.2180    9.4900  -13.5740 C   0  0  0  0  0  2  0  0  0  0  0  0
   -2.5410    9.0460  -13.9860 C   0  0  0  0  0  0  0  0  0  0  0  0
   -3.1000    8.0790  -13.9670 O   0  0  0  0  0  0  0  0  0  0  0  0
   -3.4140   10.3580  -14.6430 N   0  0  0  0  0  0  0  0  0  0  0  0
   -4.7440    9.6530  -14.5930 C   0  0  0  0  0  0  0  0  0  0  0  0
   -2.7290   10.7150  -14.6680 H   0  0  0  0  0  0  0  0  0  0  0  0
   -4.9150    8.4730  -14.7240 O   0  0  0  0  0  0  0  0  0  0  0  0
   -5.8030   10.6050  -14.3460 N   0  0  0  0  0  0  0  0  0  0  0  0
   -5.4900   11.6300  -14.2890 H   0  0  0  0  0  0  0  0  0  0  0  0
   -7.1840   10.3390  -14.1980 C   0  0  0  0  0  3  0  0  0  0  0  0
   -8.0530   11.3310  -13.5400 C   0  0  0  0  0  2  0  0  0  0  0  0
   -8.6200   12.2430  -14.6330 C   0  0  0  0  0  2  0  0  0  0  0  0
   -8.7530   11.2720  -15.7830 C   0  0  0  0  0  2  0  0  0  0  0  0
   -7.7240   10.2390  -15.6390 C   0  0  0  0  0  2  0  0  0  0  0  0
  1  2  1  0  0  0  0
  1  6  1  0  0  0  0
  3  2  1  0  0  0  0
  4 21  1  0  0  0  0
  4  5  1  0  0  0  0
  4  3  1  0  0  0  0
  5  6  1  0  0  0  0
  7 14  1  1  0  0  0
  7  8  1  0  0  0  0
  7  1  1  0  0  0  0
  8  9  1  6  0  0  0
 10 12  2  0  0  0  0
 10  8  1  0  0  0  0
 11 10  1  0  0  0  0
 13 11  1  0  0  0  0
 13 14  2  0  0  0  0
 15 11  1  0  0  0  0
 15 16  1  0  0  0  0
 17 16  2  0  0  0  0
 18 17  1  0  0  0  0
 19 20  1  0  0  0  0
 19 18  2  0  0  0  0
 20 15  2  0  0  0  0
 22 23  2  0  0  0  0
 22 21  1  0  0  0  0
 24 25  1  0  0  0  0
 24 22  1  0  0  0  0
 25 28  1  0  0  0  0
 26 24  1  0  0  0  0
 27 25  2  0  0  0  0
 28 29  1  0  0  0  0
 28 30  1  0  0  0  0
 30 31  1  0  0  0  0
 32 31  1  0  0  0  0
 33 34  1  0  0  0  0
 33 32  1  0  0  0  0
 34 30  1  0  0  0  0
M  END
>  <Pose>
1

>  <Score>
-9.660

$$$$
