/Users/jonathanwahrer/Desktop/Msc/3_Semester/Drug_Design_Praktikum/waehrer_HTS_screening/HTS_experiment/out/docking_results/vina_output/6q9y/2282_docked.pdbqt
 OpenBabel03222220433D

 31 34  0  0  1  0  0  0  0  0999 V2000
    2.1740   10.8720  -13.2880 N   0  0  0  0  0  0  0  0  0  0  0  0
    2.7500   10.4470  -14.5410 C   0  0  0  0  0  2  0  0  0  0  0  0
    2.3990    9.0160  -14.8060 C   0  0  0  0  0  2  0  0  0  0  0  0
    1.3820    8.6410  -13.8550 N   0  0  0  0  0  0  0  0  0  0  0  0
    1.9650    8.5710  -12.5640 C   0  0  0  0  0  2  0  0  0  0  0  0
    2.2830   10.0080  -12.1390 C   0  0  0  0  0  2  0  0  0  0  0  0
    1.5030   12.1130  -13.1360 C   0  0  0  0  0  0  0  0  0  0  0  0
    2.1210   13.2180  -12.5570 C   0  0  0  0  0  0  0  0  0  0  0  0
    3.7710   13.0130  -12.0080 Cl  0  0  0  0  0  0  0  0  0  0  0  0
    1.4480   14.4170  -12.4280 C   0  0  0  0  0  0  0  0  0  0  0  0
    0.1780   14.5650  -12.8520 N   0  0  0  0  0  0  0  0  0  0  0  0
    2.0130   15.4160  -11.9010 O   0  0  0  0  0  0  0  0  0  0  0  0
   -0.3900   13.5050  -13.4000 N   0  0  0  0  0  0  0  0  0  0  0  0
    0.2050   12.3100  -13.5560 C   0  0  0  0  0  3  0  0  0  0  0  0
   -0.5190   15.8110  -12.7210 C   0  0  0  0  0  0  0  0  0  0  0  0
   -1.3780   16.2280  -13.7110 C   0  0  0  0  0  3  0  0  0  0  0  0
   -2.0650   17.4420  -13.5930 C   0  0  0  0  0  3  0  0  0  0  0  0
   -1.9030   18.2510  -12.4910 C   0  0  0  0  0  3  0  0  0  0  0  0
   -1.0450   17.8400  -11.4950 C   0  0  0  0  0  3  0  0  0  0  0  0
   -0.3680   16.6320  -11.6240 C   0  0  0  0  0  3  0  0  0  0  0  0
    0.4960    7.6210  -14.2540 C   0  0  0  0  0  2  0  0  0  0  0  0
   -0.8840    7.7870  -13.7860 C   0  0  0  0  0  0  0  0  0  0  0  0
   -1.4930    6.7150  -13.4490 O   0  0  0  0  0  0  0  0  0  0  0  0
   -1.5900    9.0090  -13.6740 N   0  0  0  0  0  0  0  0  0  0  0  0
   -1.0870    9.8800  -13.9390 H   0  0  0  0  0  0  0  0  0  0  0  0
   -2.9480    9.1210  -13.2070 C   0  0  0  0  0  2  0  0  0  0  0  0
   -3.8720    9.2440  -14.3780 C   0  0  1  0  0  3  0  0  0  0  0  0
   -3.9570    8.0370  -15.0200 O   0  0  0  0  0  0  0  0  0  0  0  0
   -5.2530    7.6040  -15.0810 C   0  0  0  0  0  2  0  0  0  0  0  0
   -6.0510    8.8910  -15.0690 C   0  0  0  0  0  2  0  0  0  0  0  0
   -5.2840    9.6140  -13.9490 C   0  0  0  0  0  2  0  0  0  0  0  0
  1  7  1  0  0  0  0
  1  6  1  0  0  0  0
  2  1  1  0  0  0  0
  3  2  1  0  0  0  0
  3  4  1  0  0  0  0
  4  5  1  0  0  0  0
  5  6  1  0  0  0  0
  7  8  2  0  0  0  0
  8 10  1  0  0  0  0
  8  9  1  0  0  0  0
 10 12  2  0  0  0  0
 11 15  1  0  0  0  0
 11 10  1  0  0  0  0
 13 11  1  0  0  0  0
 14 13  2  0  0  0  0
 14  7  1  0  0  0  0
 15 20  1  0  0  0  0
 16 17  1  0  0  0  0
 16 15  2  0  0  0  0
 17 18  2  0  0  0  0
 18 19  1  0  0  0  0
 20 19  2  0  0  0  0
 21  4  1  0  0  0  0
 21 22  1  0  0  0  0
 22 24  1  0  0  0  0
 22 23  2  0  0  0  0
 24 26  1  0  0  0  0
 25 24  1  0  0  0  0
 27 31  1  0  0  0  0
 27 26  1  1  0  0  0
 28 27  1  0  0  0  0
 29 30  1  0  0  0  0
 29 28  1  0  0  0  0
 30 31  1  0  0  0  0
M  END
>  <Pose>
1

>  <Score>
-8.438

$$$$
