/Users/jonathanwahrer/Desktop/Msc/3_Semester/Drug_Design_Praktikum/waehrer_HTS_screening/HTS_experiment/out/docking_results/vina_output/6q9y/2284_docked.pdbqt
 OpenBabel03222220443D

 33 37  0  0  0  0  0  0  0  0999 V2000
   -1.0750    7.5680  -14.0090 C   0  0  0  0  0  0  0  0  0  0  0  0
   -1.9910    6.7260  -14.6080 C   0  0  0  0  0  3  0  0  0  0  0  0
   -3.2990    7.0500  -14.8620 C   0  0  0  0  0  0  0  0  0  0  0  0
   -4.0500    6.1870  -15.4230 O   0  0  0  0  0  0  0  0  0  0  0  0
   -3.7660    8.2860  -14.5120 N   0  0  0  0  0  0  0  0  0  0  0  0
   -4.9530    8.7100  -14.6920 N   0  0  0  0  0  0  0  0  0  0  0  0
   -5.3320    9.9010  -14.3340 C   0  0  0  0  0  0  0  0  0  0  0  0
   -3.8500   10.4890  -13.6690 S   0  0  0  0  0  0  0  0  0  0  0  0
   -2.8790    9.0970  -13.9330 C   0  0  0  0  0  0  0  0  0  0  0  0
   -1.5910    8.7730  -13.6840 N   0  0  0  0  0  0  0  0  0  0  0  0
    0.3290    7.1670  -13.7560 C   0  0  0  0  0  2  0  0  0  0  0  0
    1.1400    8.3410  -13.7040 N   0  0  0  0  0  0  0  0  0  0  0  0
    1.7800    8.7230  -14.8990 C   0  0  0  0  0  2  0  0  0  0  0  0
    2.2180   10.1860  -14.7760 C   0  0  0  0  0  2  0  0  0  0  0  0
    2.9320   10.3910  -13.5930 N   0  0  0  0  0  0  0  0  0  0  0  0
    3.2110    9.2200  -12.8730 C   0  0  0  0  0  2  0  0  0  0  0  0
    1.9280    8.4920  -12.5400 C   0  0  0  0  0  2  0  0  0  0  0  0
    2.9700   11.8750  -12.8510 S   0  0  0  0  0  0  0  0  0  0  0  0
    3.8410   12.8120  -13.6820 O   0  0  0  0  0  0  0  0  0  0  0  0
    3.5020   11.8050  -11.4430 O   0  0  0  0  0  0  0  0  0  0  0  0
    1.3850   12.6130  -12.8290 C   0  0  0  0  0  0  0  0  0  0  0  0
    0.2150   12.0470  -13.2370 N   0  0  0  0  0  0  0  0  0  0  0  0
   -0.7940   12.9050  -13.0790 C   0  0  0  0  0  3  0  0  0  0  0  0
   -0.3290   14.0520  -12.5660 N   0  0  0  0  0  0  0  0  0  0  0  0
    1.0110   13.8690  -12.4140 C   0  0  0  0  0  3  0  0  0  0  0  0
   -0.8770   14.8970  -12.3360 H   0  0  0  0  0  0  0  0  0  0  0  0
   -6.6220   10.5940  -14.4370 C   0  0  0  0  0  0  0  0  0  0  0  0
   -7.4160   10.3530  -15.5380 C   0  0  0  0  0  3  0  0  0  0  0  0
   -8.6460   10.9750  -15.6950 C   0  0  0  0  0  3  0  0  0  0  0  0
   -9.0950   11.8560  -14.7330 C   0  0  0  0  0  0  0  0  0  0  0  0
   -8.3160   12.1140  -13.6180 C   0  0  0  0  0  3  0  0  0  0  0  0
  -10.6300   12.6410  -14.9150 Cl  0  0  0  0  0  0  0  0  0  0  0  0
   -7.1030   11.4730  -13.5080 C   0  0  0  0  0  3  0  0  0  0  0  0
  1 11  1  0  0  0  0
  1 10  1  0  0  0  0
  2  1  2  0  0  0  0
  3  2  1  0  0  0  0
  3  5  1  0  0  0  0
  4  3  2  0  0  0  0
  5  9  1  0  0  0  0
  6  5  1  0  0  0  0
  6  7  2  0  0  0  0
  7  8  1  0  0  0  0
  9 10  2  0  0  0  0
  9  8  1  0  0  0  0
 11 12  1  0  0  0  0
 12 17  1  0  0  0  0
 13 14  1  0  0  0  0
 13 12  1  0  0  0  0
 14 15  1  0  0  0  0
 15 16  1  0  0  0  0
 15 18  1  0  0  0  0
 16 17  1  0  0  0  0
 18 21  1  0  0  0  0
 18 20  2  0  0  0  0
 19 18  2  0  0  0  0
 21 25  2  0  0  0  0
 22 23  2  0  0  0  0
 22 21  1  0  0  0  0
 23 24  1  0  0  0  0
 24 25  1  0  0  0  0
 24 26  1  0  0  0  0
 27  7  1  0  0  0  0
 27 33  1  0  0  0  0
 28 27  2  0  0  0  0
 29 28  1  0  0  0  0
 29 30  2  0  0  0  0
 30 31  1  0  0  0  0
 31 33  2  0  0  0  0
 32 30  1  0  0  0  0
M  END
>  <Pose>
1

>  <Score>
-8.847

$$$$
