/Users/jonathanwahrer/Desktop/Msc/3_Semester/Drug_Design_Praktikum/waehrer_HTS_screening/HTS_experiment/out/docking_results/vina_output/6q9y/2286_docked.pdbqt
 OpenBabel03222220443D

 31 34  0  0  0  0  0  0  0  0999 V2000
    1.7920   10.4520  -13.3170 N   0  0  0  0  0  0  0  0  0  0  0  0
    1.9950   10.1670  -14.6910 C   0  0  0  0  0  2  0  0  0  0  0  0
    3.1620    9.2550  -14.9670 C   0  0  0  0  0  2  0  0  0  0  0  0
    3.2750    8.1990  -13.9830 N   0  0  0  0  0  0  0  0  0  0  0  0
    2.1440    8.0330  -13.0900 C   0  0  0  0  0  2  0  0  0  0  0  0
    1.7520    9.3370  -12.4400 C   0  0  0  0  0  2  0  0  0  0  0  0
    4.4320    7.4120  -13.9380 C   0  0  0  0  0  0  0  0  0  0  0  0
    5.3550    7.6360  -14.7560 O   0  0  0  0  0  0  0  0  0  0  0  0
    4.6100    6.3140  -12.9530 C   0  0  0  0  0  2  0  0  0  0  0  0
    5.8440    5.6040  -13.1510 N   0  0  0  0  0  0  0  0  0  0  0  0
    5.9350    4.2670  -13.6200 C   0  0  0  0  0  0  0  0  0  0  0  0
    4.9340    3.5340  -13.9220 O   0  0  0  0  0  0  0  0  0  0  0  0
    7.2860    3.8360  -13.7130 N   0  0  0  0  0  0  0  0  0  0  0  0
    8.0960    4.8540  -13.0710 C   0  0  0  0  0  0  0  0  0  0  0  0
    7.7450    2.5980  -14.3430 C   0  0  0  0  0  1  0  0  0  0  0  0
    9.2650    5.2690  -13.9160 C   0  0  0  0  0  2  0  0  0  0  0  0
    8.5010    4.3110  -11.7210 C   0  0  0  0  0  2  0  0  0  0  0  0
    7.1870    6.0210  -12.9450 C   0  0  0  0  0  0  0  0  0  0  0  0
   10.4670    4.3840  -13.7630 C   0  0  0  0  0  2  0  0  0  0  0  0
   10.8610    4.1420  -12.3360 C   0  0  0  0  0  2  0  0  0  0  0  0
    9.8960    4.7690  -11.3540 C   0  0  0  0  0  2  0  0  0  0  0  0
    7.5140    7.2060  -12.6960 O   0  0  0  0  0  0  0  0  0  0  0  0
    2.6830   11.7850  -12.7190 S   0  0  0  0  0  0  0  0  0  0  0  0
    3.8990   11.9880  -13.5690 O   0  0  0  0  0  0  0  0  0  0  0  0
    3.1330   11.5530  -11.3070 O   0  0  0  0  0  0  0  0  0  0  0  0
    1.7070   13.2640  -12.7000 C   0  0  0  0  0  0  0  0  0  0  0  0
    0.0790   13.4680  -13.1410 S   0  0  0  0  0  0  0  0  0  0  0  0
   -0.0830   15.1340  -12.8420 C   0  0  0  0  0  0  0  0  0  0  0  0
    1.1600   15.4970  -12.3970 C   0  0  0  0  0  3  0  0  0  0  0  0
   -1.5020   16.1830  -13.0460 Cl  0  0  0  0  0  0  0  0  0  0  0  0
    2.0930   14.5210  -12.3230 C   0  0  0  0  0  3  0  0  0  0  0  0
  1 23  1  0  0  0  0
  1  6  1  0  0  0  0
  2  1  1  0  0  0  0
  3  2  1  0  0  0  0
  3  4  1  0  0  0  0
  4  7  1  0  0  0  0
  4  5  1  0  0  0  0
  5  6  1  0  0  0  0
  7  9  1  0  0  0  0
  8  7  2  0  0  0  0
 10  9  1  0  0  0  0
 10 18  1  0  0  0  0
 11 10  1  0  0  0  0
 12 11  2  0  0  0  0
 13 11  1  0  0  0  0
 13 14  1  0  0  0  0
 14 18  1  0  0  0  0
 14 17  1  0  0  0  0
 15 13  1  0  0  0  0
 16 19  1  0  0  0  0
 16 14  1  0  0  0  0
 17 21  1  0  0  0  0
 18 22  2  0  0  0  0
 19 20  1  0  0  0  0
 20 21  1  0  0  0  0
 23 26  1  0  0  0  0
 23 25  2  0  0  0  0
 24 23  2  0  0  0  0
 26 31  2  0  0  0  0
 27 28  1  0  0  0  0
 27 26  1  0  0  0  0
 28 29  2  0  0  0  0
 29 31  1  0  0  0  0
 30 28  1  0  0  0  0
M  END
>  <Pose>
1

>  <Score>
-8.589

$$$$
