/Users/jonathanwahrer/Desktop/Msc/3_Semester/Drug_Design_Praktikum/waehrer_HTS_screening/HTS_experiment/out/docking_results/vina_output/6q9y/2298_docked.pdbqt
 OpenBabel03222220453D

 34 37  0  0  0  0  0  0  0  0999 V2000
    3.7440    8.0360  -14.5010 C   0  0  0  0  0  2  0  0  0  0  0  0
    2.4420    8.2500  -13.9400 N   0  0  0  0  0  0  0  0  0  0  0  0
    2.4510    8.5930  -12.5630 C   0  0  0  0  0  2  0  0  0  0  0  0
    1.8480    9.9270  -12.2170 C   0  0  0  0  0  2  0  0  0  0  0  0
    2.2640   10.8970  -13.1050 N   0  0  0  0  0  0  0  0  0  0  0  0
    2.1530   10.5980  -14.4670 C   0  0  0  0  0  2  0  0  0  0  0  0
    1.6660    9.1720  -14.7050 C   0  0  0  0  0  2  0  0  0  0  0  0
    2.8810   12.3670  -12.6360 S   0  0  0  0  0  0  0  0  0  0  0  0
    3.4280   12.3760  -11.2290 O   0  0  0  0  0  0  0  0  0  0  0  0
    4.0070   12.8740  -13.5090 O   0  0  0  0  0  0  0  0  0  0  0  0
    1.6090   13.5850  -12.6610 C   0  0  0  0  0  0  0  0  0  0  0  0
    1.8630   14.8850  -12.3210 C   0  0  0  0  0  3  0  0  0  0  0  0
    0.8770   15.8350  -12.3390 C   0  0  0  0  0  3  0  0  0  0  0  0
   -0.3980   15.4660  -12.7080 C   0  0  0  0  0  0  0  0  0  0  0  0
   -0.6590   14.1530  -13.0530 C   0  0  0  0  0  3  0  0  0  0  0  0
   -1.6390   16.7070  -12.7210 Cl  0  0  0  0  0  0  0  0  0  0  0  0
    0.3370   13.2100  -13.0310 C   0  0  0  0  0  3  0  0  0  0  0  0
    4.5180    7.0260  -13.7030 C   0  0  0  0  0  0  0  0  0  0  0  0
    3.8860    6.0340  -13.2810 O   0  0  0  0  0  0  0  0  0  0  0  0
    5.9020    7.1950  -13.4440 N   0  0  0  0  0  0  0  0  0  0  0  0
    6.3750    8.0540  -13.8320 H   0  0  0  0  0  0  0  0  0  0  0  0
    6.5610    6.1810  -12.6730 C   0  0  0  0  0  2  0  0  0  0  0  0
    7.7630    5.5630  -13.2750 C   0  0  0  0  0  0  0  0  0  0  0  0
    8.8930    5.5830  -12.2760 C   0  0  0  0  0  2  0  0  0  0  0  0
    9.7570    6.8420  -12.4040 C   0  0  0  0  0  2  0  0  0  0  0  0
   10.5160    6.8240  -13.7150 C   0  0  0  0  0  2  0  0  0  0  0  0
    9.6470    6.1050  -14.7310 C   0  0  0  0  0  2  0  0  0  0  0  0
    8.2200    6.4990  -14.4120 C   0  0  0  0  0  2  0  0  0  0  0  0
    7.6350    4.2790  -13.8490 N   0  0  0  0  0  0  0  0  0  0  0  0
    8.6040    3.2940  -13.5240 C   0  0  0  0  0  2  0  0  0  0  0  0
    8.4700    2.1990  -14.5990 C   0  0  0  0  0  2  0  0  0  0  0  0
    7.2260    1.6190  -14.5280 O   0  0  0  0  0  0  0  0  0  0  0  0
    6.3990    2.1620  -13.5770 C   0  0  0  0  0  2  0  0  0  0  0  0
    6.3260    3.6850  -13.6810 C   0  0  0  0  0  2  0  0  0  0  0  0
  1  2  1  0  0  0  0
  1 18  1  0  0  0  0
  2  3  1  0  0  0  0
  3  4  1  0  0  0  0
  5  8  1  0  0  0  0
  5  4  1  0  0  0  0
  6  5  1  0  0  0  0
  7  6  1  0  0  0  0
  7  2  1  0  0  0  0
  8  9  2  0  0  0  0
 10  8  2  0  0  0  0
 11  8  1  0  0  0  0
 11 12  1  0  0  0  0
 13 12  2  0  0  0  0
 14 13  1  0  0  0  0
 15 17  1  0  0  0  0
 15 14  2  0  0  0  0
 16 14  1  0  0  0  0
 17 11  2  0  0  0  0
 18 20  1  0  0  0  0
 18 19  2  0  0  0  0
 20 22  1  0  0  0  0
 21 20  1  0  0  0  0
 23 22  1  0  0  0  0
 23 24  1  0  0  0  0
 25 24  1  0  0  0  0
 26 25  1  0  0  0  0
 27 28  1  0  0  0  0
 27 26  1  0  0  0  0
 28 23  1  0  0  0  0
 29 34  1  0  0  0  0
 29 30  1  0  0  0  0
 29 23  1  0  0  0  0
 31 32  1  0  0  0  0
 31 30  1  0  0  0  0
 32 33  1  0  0  0  0
 34 33  1  0  0  0  0
M  END
>  <Pose>
1

>  <Score>
-8.142

$$$$
