/Users/jonathanwahrer/Desktop/Msc/3_Semester/Drug_Design_Praktikum/waehrer_HTS_screening/HTS_experiment/out/docking_results/vina_output/6q9y/2304_docked.pdbqt
 OpenBabel03222220453D

 28 31  0  0  1  0  0  0  0  0999 V2000
   -4.8160    9.5100  -14.3940 N   0  0  0  0  0  0  0  0  0  0  0  0
   -4.6260    8.1380  -14.6770 C   0  0  0  0  0  2  0  0  0  0  0  0
   -3.1920    7.7210  -14.8660 C   0  0  0  0  0  2  0  0  0  0  0  0
   -2.3010    8.3110  -13.9070 N   0  0  0  0  0  0  0  0  0  0  0  0
   -2.8240    9.3890  -13.1050 C   0  0  0  0  0  2  0  0  0  0  0  0
   -3.6630   10.2600  -14.0360 C   0  0  0  0  0  2  0  0  0  0  0  0
   -0.9830    7.8390  -13.7840 C   0  0  0  0  0  0  0  0  0  0  0  0
   -0.6330    6.8980  -14.5510 O   0  0  0  0  0  0  0  0  0  0  0  0
    0.0130    8.3760  -12.8170 C   0  0  2  0  0  3  0  0  0  0  0  0
    0.8040    9.4030  -13.3890 N   0  0  0  0  0  0  0  0  0  0  0  0
    2.0070    8.9930  -14.0380 C   0  0  2  0  0  0  0  0  0  0  0  0
    0.7750   10.8410  -13.5400 C   0  0  0  0  0  0  0  0  0  0  0  0
    2.4910    7.5330  -13.0960 S   0  0  0  0  0  0  0  0  0  0  0  0
    2.9760   10.1010  -13.6750 C   0  0  0  0  0  2  0  0  0  0  0  0
    1.9230    8.7710  -15.4960 C   0  0  0  0  0  1  0  0  0  0  0  0
    0.8840    7.3020  -12.2370 C   0  0  0  0  0  2  0  0  0  0  0  0
    2.0840   11.3100  -13.9850 C   0  0  0  0  0  2  0  0  0  0  0  0
   -0.2110   11.6100  -13.3280 O   0  0  0  0  0  0  0  0  0  0  0  0
   -6.2390    9.9010  -13.5560 S   0  0  0  0  0  0  0  0  0  0  0  0
   -6.7640    8.7160  -12.8080 O   0  0  0  0  0  0  0  0  0  0  0  0
   -5.9090   10.9530  -12.5250 O   0  0  0  0  0  0  0  0  0  0  0  0
   -7.4820   10.5900  -14.5950 C   0  0  0  0  0  0  0  0  0  0  0  0
   -8.1570   11.7300  -14.2170 C   0  0  0  0  0  3  0  0  0  0  0  0
   -9.1340   12.2930  -15.0040 C   0  0  0  0  0  3  0  0  0  0  0  0
   -9.4860   11.7360  -16.2210 C   0  0  0  0  0  0  0  0  0  0  0  0
   -8.7900   10.5920  -16.5730 C   0  0  0  0  0  3  0  0  0  0  0  0
  -10.7250   12.4260  -17.2480 Cl  0  0  0  0  0  0  0  0  0  0  0  0
   -7.8120   10.0190  -15.7980 C   0  0  0  0  0  3  0  0  0  0  0  0
  1  6  1  0  0  0  0
  1 19  1  0  0  0  0
  2  1  1  0  0  0  0
  3  2  1  0  0  0  0
  3  4  1  0  0  0  0
  4  7  1  0  0  0  0
  4  5  1  0  0  0  0
  6  5  1  0  0  0  0
  8  7  2  0  0  0  0
  9  7  1  6  0  0  0
  9 16  1  0  0  0  0
 10  9  1  0  0  0  0
 11 15  1  6  0  0  0
 11 14  1  0  0  0  0
 11 10  1  0  0  0  0
 11 13  1  0  0  0  0
 12 10  1  0  0  0  0
 12 18  2  0  0  0  0
 13 16  1  0  0  0  0
 17 14  1  0  0  0  0
 17 12  1  0  0  0  0
 19 20  2  0  0  0  0
 19 21  2  0  0  0  0
 22 23  1  0  0  0  0
 22 19  1  0  0  0  0
 24 23  2  0  0  0  0
 25 24  1  0  0  0  0
 26 25  2  0  0  0  0
 26 28  1  0  0  0  0
 27 25  1  0  0  0  0
 28 22  2  0  0  0  0
M  END
>  <Pose>
1

>  <Score>
-8.365

$$$$
