/Users/jonathanwahrer/Desktop/Msc/3_Semester/Drug_Design_Praktikum/waehrer_HTS_screening/HTS_experiment/out/docking_results/vina_output/6q9y/2319_docked.pdbqt
 OpenBabel03222220453D

 33 36  0  0  0  0  0  0  0  0999 V2000
    2.4670    6.8970  -12.9520 N   0  0  0  0  0  0  0  0  0  0  0  0
    1.2510    6.5980  -12.2990 C   0  0  0  0  0  0  0  0  0  0  0  0
    1.1130    5.5230  -11.6790 O   0  0  0  0  0  0  0  0  0  0  0  0
    2.6520    7.7720  -13.4870 H   0  0  0  0  0  0  0  0  0  0  0  0
    0.0830    7.5340  -12.3130 C   0  0  0  0  0  2  0  0  0  0  0  0
    0.4220    8.8070  -12.8870 N   0  0  0  0  0  0  0  0  0  0  0  0
   -0.5560    9.7550  -13.2950 C   0  0  0  0  0  0  0  0  0  0  0  0
   -1.7630    9.4640  -13.1460 O   0  0  0  0  0  0  0  0  0  0  0  0
    1.4190    9.0920  -13.0290 H   0  0  0  0  0  0  0  0  0  0  0  0
   -0.2200   11.0800  -13.8960 C   0  0  0  0  0  0  0  0  0  0  0  0
    1.1330   11.3940  -13.7440 O   0  0  0  0  0  0  0  0  0  0  0  0
    1.6300   12.3900  -12.9070 C   0  0  0  0  0  0  0  0  0  0  0  0
    0.7470   13.3520  -12.4930 C   0  0  0  0  0  0  0  0  0  0  0  0
    2.9300   12.4380  -12.4990 C   0  0  0  0  0  3  0  0  0  0  0  0
    1.2180   14.3620  -11.6540 C   0  0  0  0  0  3  0  0  0  0  0  0
   -0.5560   13.2990  -12.9040 O   0  0  0  0  0  0  0  0  0  0  0  0
    2.5270   14.4240  -11.2340 C   0  0  0  0  0  3  0  0  0  0  0  0
    3.3890   13.4370  -11.6730 C   0  0  0  0  0  3  0  0  0  0  0  0
   -1.1490   12.1580  -13.4600 C   0  0  0  0  0  3  0  0  0  0  0  0
    3.4990    5.9560  -12.8830 N   0  0  0  0  0  0  0  0  0  0  0  0
    4.7040    6.2210  -13.2240 C   0  0  0  0  0  0  0  0  0  0  0  0
    5.8900    5.3770  -13.2190 C   0  0  0  0  0  0  0  0  0  0  0  0
    5.1500    7.5270  -13.7240 C   0  0  0  0  0  0  0  0  0  0  0  0
    6.9980    6.0730  -13.6730 C   0  0  0  0  0  0  0  0  0  0  0  0
    6.0940    4.0630  -12.8590 C   0  0  0  0  0  3  0  0  0  0  0  0
    8.2450    5.4900  -13.7640 C   0  0  0  0  0  0  0  0  0  0  0  0
    6.5330    7.3830  -13.9780 N   0  0  0  0  0  0  0  0  0  0  0  0
    9.7660    6.4640  -14.3970 Br  0  0  0  0  0  0  0  0  0  0  0  0
    8.4220    4.1570  -13.3920 C   0  0  0  0  0  3  0  0  0  0  0  0
    7.3230    3.4470  -12.9360 C   0  0  0  0  0  0  0  0  0  0  0  0
    7.5380    1.6190  -12.4210 Br  0  0  0  0  0  0  0  0  0  0  0  0
    7.1380    8.1380  -14.3420 H   0  0  0  0  0  0  0  0  0  0  0  0
    4.3890    8.5210  -13.8680 O   0  0  0  0  0  0  0  0  0  0  0  0
  1 20  1  0  0  0  0
  1  2  1  0  0  0  0
  2  3  2  0  0  0  0
  4  1  1  0  0  0  0
  5  2  1  0  0  0  0
  6  5  1  0  0  0  0
  7  8  2  0  0  0  0
  7  6  1  0  0  0  0
  9  6  1  0  0  0  0
 10 11  1  0  0  0  0
 10 19  2  0  0  0  0
 10  7  1  0  0  0  0
 11 12  1  0  0  0  0
 12 14  2  0  0  0  0
 12 13  1  0  0  0  0
 13 15  2  0  0  0  0
 14 18  1  0  0  0  0
 15 17  1  0  0  0  0
 16 13  1  0  0  0  0
 18 17  2  0  0  0  0
 19 16  1  0  0  0  0
 21 22  1  0  0  0  0
 21 20  2  0  0  0  0
 22 25  1  0  0  0  0
 23 21  1  0  0  0  0
 24 22  2  0  0  0  0
 26 24  1  0  0  0  0
 26 29  2  0  0  0  0
 27 23  1  0  0  0  0
 27 24  1  0  0  0  0
 28 26  1  0  0  0  0
 29 30  1  0  0  0  0
 30 25  2  0  0  0  0
 30 31  1  0  0  0  0
 32 27  1  0  0  0  0
 33 23  2  0  0  0  0
M  END
>  <Pose>
1

>  <Score>
-5.329

$$$$
