/Users/jonathanwahrer/Desktop/Msc/3_Semester/Drug_Design_Praktikum/waehrer_HTS_screening/HTS_experiment/out/docking_results/vina_output/6q9y/2330_docked.pdbqt
 OpenBabel03222220463D

 28 31  0  0  0  0  0  0  0  0999 V2000
    0.0730   14.2540  -12.8420 C   0  0  0  0  0  0  0  0  0  0  0  0
    0.6600   14.6730  -11.8180 O   0  0  0  0  0  0  0  0  0  0  0  0
   -0.5710   15.1630  -13.6820 N   0  0  0  0  0  0  0  0  0  0  0  0
   -1.0360   14.6980  -14.5410 H   0  0  0  0  0  0  0  0  0  0  0  0
    0.1060   12.8000  -13.0890 C   0  0  0  0  0  0  0  0  0  0  0  0
    1.2790   12.0770  -13.0320 C   0  0  0  0  0  0  0  0  0  0  0  0
    2.7550   12.9500  -12.6500 Cl  0  0  0  0  0  0  0  0  0  0  0  0
    1.3090   10.7040  -13.2660 C   0  0  0  0  0  3  0  0  0  0  0  0
    0.1370   10.0590  -13.5620 C   0  0  0  0  0  3  0  0  0  0  0  0
   -1.0790   10.7480  -13.6310 C   0  0  0  0  0  0  0  0  0  0  0  0
   -1.0410   12.0970  -13.3910 C   0  0  0  0  0  3  0  0  0  0  0  0
   -2.3020   10.0250  -13.9490 C   0  0  0  0  0  0  0  0  0  0  0  0
   -3.5010   10.4970  -14.3030 N   0  0  0  0  0  0  0  0  0  0  0  0
   -4.3350    9.4640  -14.5020 N   0  0  0  0  0  0  0  0  0  0  0  0
   -3.6680    8.3460  -14.2750 N   0  0  0  0  0  0  0  0  0  0  0  0
   -5.3410    9.5130  -14.7860 H   0  0  0  0  0  0  0  0  0  0  0  0
   -2.4230    8.6890  -13.9380 N   0  0  0  0  0  0  0  0  0  0  0  0
   -0.7160   16.5590  -13.6000 C   0  0  0  0  0  2  0  0  0  0  0  0
   -1.9990   17.1690  -13.2270 C   0  0  0  0  0  2  0  0  0  0  0  0
   -2.0740   18.0330  -12.0520 C   0  0  0  0  0  0  0  0  0  0  0  0
   -3.0800   18.8350  -11.6880 N   0  0  0  0  0  0  0  0  0  0  0  0
   -2.7610   19.4080  -10.5390 C   0  0  0  0  0  0  0  0  0  0  0  0
   -4.2610   19.1090  -12.2770 C   0  0  0  0  0  3  0  0  0  0  0  0
   -1.5490   18.9620  -10.1840 N   0  0  0  0  0  0  0  0  0  0  0  0
   -3.5970   20.2960   -9.8970 C   0  0  0  0  0  3  0  0  0  0  0  0
   -1.1370   18.1300  -11.1020 N   0  0  0  0  0  0  0  0  0  0  0  0
   -4.8090   20.5780  -10.5010 C   0  0  0  0  0  3  0  0  0  0  0  0
   -5.1290   19.9810  -11.6900 C   0  0  0  0  0  3  0  0  0  0  0  0
  1  2  2  0  0  0  0
  3 18  1  0  0  0  0
  3  1  1  0  0  0  0
  4  3  1  0  0  0  0
  5  6  1  0  0  0  0
  5  1  1  0  0  0  0
  6  7  1  0  0  0  0
  8  6  2  0  0  0  0
  9  8  1  0  0  0  0
 10  9  2  0  0  0  0
 10 11  1  0  0  0  0
 11  5  2  0  0  0  0
 12 17  1  0  0  0  0
 12 10  1  0  0  0  0
 13 12  2  0  0  0  0
 14 13  1  0  0  0  0
 14 15  1  0  0  0  0
 15 17  2  0  0  0  0
 16 14  1  0  0  0  0
 18 19  1  0  0  0  0
 19 20  1  0  0  0  0
 20 21  1  0  0  0  0
 20 26  2  0  0  0  0
 21 22  1  0  0  0  0
 22 24  2  0  0  0  0
 22 25  1  0  0  0  0
 23 28  2  0  0  0  0
 23 21  1  0  0  0  0
 26 24  1  0  0  0  0
 27 25  2  0  0  0  0
 28 27  1  0  0  0  0
M  END
>  <Pose>
1

>  <Score>
-10.452

$$$$
