/Users/jonathanwahrer/Desktop/Msc/3_Semester/Drug_Design_Praktikum/waehrer_HTS_screening/HTS_experiment/out/docking_results/vina_output/6q9y/2334_docked.pdbqt
 OpenBabel03222220463D

 30 33  0  0  1  0  0  0  0  0999 V2000
   -0.1410    7.6310  -13.1610 S   0  0  0  0  0  0  0  0  0  0  0  0
    0.8260    6.4690  -13.4000 O   0  0  0  0  0  0  0  0  0  0  0  0
   -0.3980    7.5940  -11.6500 O   0  0  0  0  0  0  0  0  0  0  0  0
    0.6930    9.0460  -13.5760 N   0  0  0  0  0  0  0  0  0  0  0  0
    1.4730    9.6500  -12.5550 C   0  0  0  0  0  2  0  0  0  0  0  0
    2.2080   10.8860  -13.0170 C   0  0  1  0  0  3  0  0  0  0  0  0
    3.0530   10.5760  -14.2050 C   0  0  0  0  0  2  0  0  0  0  0  0
    2.2670    9.8430  -15.2780 C   0  0  0  0  0  2  0  0  0  0  0  0
    1.6090    8.6550  -14.6680 C   0  0  0  0  0  2  0  0  0  0  0  0
    1.3540   12.0830  -13.1540 C   0  0  0  0  0  0  0  0  0  0  0  0
    0.2010   11.8710  -13.6850 O   0  0  0  0  0  0  0  0  0  0  0  0
    1.6520   13.3840  -12.7760 N   0  0  0  0  0  0  0  0  0  0  0  0
    0.7120   14.4490  -12.9330 C   0  0  0  0  0  2  0  0  0  0  0  0
    2.9340   13.7410  -12.2190 C   0  0  0  0  0  2  0  0  0  0  0  0
    0.7590   15.4650  -11.8260 C   0  0  0  0  0  2  0  0  0  0  0  0
    1.9380   15.5470  -11.1540 O   0  0  0  0  0  0  0  0  0  0  0  0
    2.5690   14.3560  -10.8580 C   0  0  0  0  0  2  0  0  0  0  0  0
   -1.6270    7.3250  -13.9560 C   0  0  0  0  0  0  0  0  0  0  0  0
   -1.8950    6.1420  -14.6010 C   0  0  0  0  0  0  0  0  0  0  0  0
   -3.1420    5.9300  -15.1700 C   0  0  0  0  0  3  0  0  0  0  0  0
   -0.7060    4.8770  -14.8270 Cl  0  0  0  0  0  0  0  0  0  0  0  0
   -4.1450    6.9010  -15.1070 C   0  0  0  0  0  3  0  0  0  0  0  0
   -3.8890    8.0920  -14.4670 C   0  0  0  0  0  0  0  0  0  0  0  0
   -2.6470    8.2830  -13.9090 C   0  0  0  0  0  3  0  0  0  0  0  0
   -4.9160    9.1220  -14.3890 C   0  0  0  0  0  0  0  0  0  0  0  0
   -4.8180   10.2920  -13.7340 N   0  0  0  0  0  0  0  0  0  0  0  0
   -5.9220   10.9720  -13.8720 O   0  0  0  0  0  0  0  0  0  0  0  0
   -6.7570   10.2840  -14.6050 C   0  0  0  0  0  0  0  0  0  0  0  0
   -6.1440    9.1310  -14.9320 N   0  0  0  0  0  0  0  0  0  0  0  0
   -8.1470   10.6910  -15.0120 C   0  0  0  0  0  1  0  0  0  0  0  0
  1  3  2  0  0  0  0
  2  1  2  0  0  0  0
  4  1  1  0  0  0  0
  4  5  1  0  0  0  0
  6 10  1  6  0  0  0
  6  5  1  0  0  0  0
  7  6  1  0  0  0  0
  8  9  1  0  0  0  0
  8  7  1  0  0  0  0
  9  4  1  0  0  0  0
 10 12  1  0  0  0  0
 11 10  2  0  0  0  0
 12 14  1  0  0  0  0
 13 12  1  0  0  0  0
 13 15  1  0  0  0  0
 14 17  1  0  0  0  0
 15 16  1  0  0  0  0
 16 17  1  0  0  0  0
 18 24  1  0  0  0  0
 18  1  1  0  0  0  0
 19 18  2  0  0  0  0
 20 22  2  0  0  0  0
 20 19  1  0  0  0  0
 21 19  1  0  0  0  0
 22 23  1  0  0  0  0
 23 25  1  0  0  0  0
 23 24  2  0  0  0  0
 25 26  2  0  0  0  0
 27 26  1  0  0  0  0
 28 27  1  0  0  0  0
 29 28  2  0  0  0  0
 29 25  1  0  0  0  0
 30 28  1  0  0  0  0
M  END
>  <Pose>
1

>  <Score>
-8.684

$$$$
