/Users/jonathanwahrer/Desktop/Msc/3_Semester/Drug_Design_Praktikum/waehrer_HTS_screening/HTS_experiment/out/docking_results/vina_output/6q9y/2335_docked.pdbqt
 OpenBabel03222220463D

 35 38  0  0  1  0  0  0  0  0999 V2000
   -0.6810    7.4260  -13.7160 N   0  0  0  0  0  0  0  0  0  0  0  0
   -1.5160    8.5500  -13.5630 C   0  0  0  0  0  2  0  0  0  0  0  0
   -2.9920    8.2140  -13.5640 C   0  0  2  0  0  3  0  0  0  0  0  0
   -3.3350    6.9920  -14.3270 C   0  0  0  0  0  2  0  0  0  0  0  0
   -2.3160    6.4790  -15.2770 C   0  0  0  0  0  3  0  0  0  0  0  0
   -0.8830    6.6050  -14.8270 C   0  0  0  0  0  3  0  0  0  0  0  0
    0.4560    7.0700  -12.5570 S   0  0  0  0  0  0  0  0  0  0  0  0
    0.1600    5.6820  -11.9930 O   0  0  0  0  0  0  0  0  0  0  0  0
    0.2330    7.9920  -11.3640 O   0  0  0  0  0  0  0  0  0  0  0  0
    2.1120    7.1840  -13.0270 C   0  0  0  0  0  0  0  0  0  0  0  0
    2.9560    6.0950  -12.8760 C   0  0  0  0  0  3  0  0  0  0  0  0
    4.2790    6.1290  -13.2470 C   0  0  0  0  0  0  0  0  0  0  0  0
    4.7950    7.3080  -13.7970 C   0  0  0  0  0  0  0  0  0  0  0  0
    5.3630    5.2110  -13.2320 N   0  0  0  0  0  0  0  0  0  0  0  0
    3.9610    8.3680  -13.9400 C   0  0  0  0  0  3  0  0  0  0  0  0
    6.2360    7.1380  -14.1280 C   0  0  0  0  0  2  0  0  0  0  0  0
    2.6280    8.3320  -13.5660 C   0  0  0  0  0  0  0  0  0  0  0  0
    1.5390    9.9060  -13.8130 Br  0  0  0  0  0  0  0  0  0  0  0  0
    6.6170    5.9730  -13.2360 C   0  0  0  0  0  2  0  0  0  0  0  0
    5.3140    3.8190  -13.2190 C   0  0  0  0  0  0  0  0  0  0  0  0
    6.4020    3.1460  -13.2550 O   0  0  0  0  0  0  0  0  0  0  0  0
    4.0760    3.0430  -13.1660 C   0  0  0  0  0  2  0  0  0  0  0  0
    4.2070    1.7070  -13.8920 C   0  0  0  0  0  1  0  0  0  0  0  0
   -3.7970    9.3630  -14.0500 C   0  0  0  0  0  0  0  0  0  0  0  0
   -3.2020   10.2780  -14.6710 O   0  0  0  0  0  0  0  0  0  0  0  0
   -5.2210    9.4130  -13.8100 N   0  0  0  0  0  0  0  0  0  0  0  0
   -5.6040    8.6210  -13.2870 H   0  0  0  0  0  0  0  0  0  0  0  0
   -5.9270   10.5390  -14.3050 C   0  0  0  0  0  2  0  0  0  0  0  0
   -7.1370   11.0000  -13.5860 C   0  0  0  0  0  2  0  0  0  0  0  0
   -8.3760   11.0350  -14.2690 N   0  0  0  0  0  0  0  0  0  0  0  0
   -8.3850   10.7890  -15.6370 C   0  0  0  0  0  2  0  0  0  0  0  0
   -8.7810   11.9340  -16.5240 C   0  0  0  0  0  2  0  0  0  0  0  0
   -9.8230   12.6820  -15.9970 O   0  0  0  0  0  0  0  0  0  0  0  0
   -9.3460   13.2410  -14.8110 C   0  0  0  0  0  2  0  0  0  0  0  0
   -9.2240   12.1120  -13.8130 C   0  0  0  0  0  2  0  0  0  0  0  0
  1  2  1  0  0  0  0
  1  7  1  0  0  0  0
  3 24  1  6  0  0  0
  3  2  1  0  0  0  0
  4  3  1  0  0  0  0
  5  6  2  0  0  0  0
  5  4  1  0  0  0  0
  6  1  1  0  0  0  0
  7  8  2  0  0  0  0
  7  9  2  0  0  0  0
 10 11  1  0  0  0  0
 10  7  1  0  0  0  0
 12 14  1  0  0  0  0
 12 11  2  0  0  0  0
 13 12  1  0  0  0  0
 14 20  1  0  0  0  0
 15 13  2  0  0  0  0
 15 17  1  0  0  0  0
 16 13  1  0  0  0  0
 16 19  1  0  0  0  0
 17 10  2  0  0  0  0
 18 17  1  0  0  0  0
 19 14  1  0  0  0  0
 20 22  1  0  0  0  0
 21 20  2  0  0  0  0
 23 22  1  0  0  0  0
 24 26  1  0  0  0  0
 25 24  2  0  0  0  0
 26 27  1  0  0  0  0
 28 26  1  0  0  0  0
 28 29  1  0  0  0  0
 30 35  1  0  0  0  0
 30 29  1  0  0  0  0
 31 30  1  0  0  0  0
 32 33  1  0  0  0  0
 32 31  1  0  0  0  0
 33 34  1  0  0  0  0
 34 35  1  0  0  0  0
M  END
>  <Pose>
1

>  <Score>
-9.575

$$$$
