/Users/jonathanwahrer/Desktop/Msc/3_Semester/Drug_Design_Praktikum/waehrer_HTS_screening/HTS_experiment/out/docking_results/vina_output/6q9y/2345_docked.pdbqt
 OpenBabel03222220463D

 27 30  0  0  1  0  0  0  0  0999 V2000
    1.7140    7.2270  -13.2370 C   0  0  0  0  0  0  0  0  0  0  0  0
    2.1450    6.7200  -12.1350 O   0  0  0  0  0  0  0  0  0  0  0  0
    2.2490    8.4680  -13.5970 N   0  0  0  0  0  0  0  0  0  0  0  0
    3.2260    9.1210  -12.7400 C   0  0  0  0  0  2  0  0  0  0  0  0
    2.7400   10.5100  -12.3350 C   0  0  0  0  0  2  0  0  0  0  0  0
    2.0020   11.0810  -13.4230 N   0  0  0  0  0  0  0  0  0  0  0  0
    2.2930   10.6460  -14.7550 C   0  0  0  0  0  2  0  0  0  0  0  0
    1.8800    9.1620  -14.8080 C   0  0  0  0  0  2  0  0  0  0  0  0
    0.7160    6.4460  -13.9780 C   0  0  2  0  0  3  0  0  0  0  0  0
   -0.2750    7.2600  -14.7620 C   0  0  0  0  0  2  0  0  0  0  0  0
   -1.5700    7.0590  -14.1250 N   0  0  0  0  0  0  0  0  0  0  0  0
   -1.4800    5.7700  -13.4790 C   0  0  0  0  0  0  0  0  0  0  0  0
   -0.0640    5.4600  -13.1730 C   0  0  0  0  0  2  0  0  0  0  0  0
   -2.5280    5.0810  -13.2540 O   0  0  0  0  0  0  0  0  0  0  0  0
   -2.6970    7.9290  -14.1250 C   0  0  0  0  0  0  0  0  0  0  0  0
   -3.9080    7.5660  -14.6740 C   0  0  0  0  0  3  0  0  0  0  0  0
   -5.0020    8.4100  -14.6800 C   0  0  0  0  0  3  0  0  0  0  0  0
   -4.9110    9.6600  -14.1270 C   0  0  0  0  0  0  0  0  0  0  0  0
   -6.2970   10.7500  -14.1260 Cl  0  0  0  0  0  0  0  0  0  0  0  0
   -3.7240   10.0540  -13.5730 C   0  0  0  0  0  3  0  0  0  0  0  0
   -2.6200    9.1900  -13.5730 C   0  0  0  0  0  3  0  0  0  0  0  0
    1.0000   12.0470  -13.1920 C   0  0  0  0  0  0  0  0  0  0  0  0
    1.1760   13.2960  -12.6780 N   0  0  0  0  0  0  0  0  0  0  0  0
   -0.0120   13.9130  -12.6180 C   0  0  0  0  0  3  0  0  0  0  0  0
    2.4610   13.8690  -12.2570 C   0  0  0  0  0  1  0  0  0  0  0  0
   -0.9690   13.0500  -13.0970 C   0  0  0  0  0  3  0  0  0  0  0  0
   -0.3230   11.9470  -13.4290 N   0  0  0  0  0  0  0  0  0  0  0  0
  1  2  2  0  0  0  0
  3  1  1  0  0  0  0
  3  4  1  0  0  0  0
  4  5  1  0  0  0  0
  6 22  1  0  0  0  0
  6  5  1  0  0  0  0
  7  6  1  0  0  0  0
  8  7  1  0  0  0  0
  8  3  1  0  0  0  0
  9  1  1  1  0  0  0
  9 13  1  0  0  0  0
 10 11  1  0  0  0  0
 10  9  1  0  0  0  0
 11 15  1  0  0  0  0
 11 12  1  0  0  0  0
 12 14  2  0  0  0  0
 12 13  1  0  0  0  0
 15 21  1  0  0  0  0
 16 15  2  0  0  0  0
 17 16  1  0  0  0  0
 17 18  2  0  0  0  0
 18 19  1  0  0  0  0
 18 20  1  0  0  0  0
 20 21  2  0  0  0  0
 22 23  1  0  0  0  0
 23 24  1  0  0  0  0
 23 25  1  0  0  0  0
 26 24  2  0  0  0  0
 27 22  2  0  0  0  0
 27 26  1  0  0  0  0
M  END
>  <Pose>
1

>  <Score>
-8.002

$$$$
