/Users/jonathanwahrer/Desktop/Msc/3_Semester/Drug_Design_Praktikum/waehrer_HTS_screening/HTS_experiment/out/docking_results/vina_output/6q9y/2349_docked.pdbqt
 OpenBabel03222220473D

 28 31  0  0  1  0  0  0  0  0999 V2000
    3.5780    5.4150  -12.8130 N   0  0  0  0  0  0  0  0  0  0  0  0
    2.5780    4.6940  -12.0790 C   0  0  0  0  0  0  0  0  0  0  0  0
    2.7900    3.4820  -11.7920 O   0  0  0  0  0  0  0  0  0  0  0  0
    1.4070    5.4080  -11.7230 N   0  0  0  0  0  2  0  0  0  0  0  0
    1.1750    6.6130  -12.0080 C   0  0  0  0  0  0  0  0  0  0  0  0
    2.0870    7.5220  -12.7830 C   0  0  1  0  0  0  0  0  0  0  0  0
    1.3390    7.8130  -14.0540 C   0  0  0  0  0  2  0  0  0  0  0  0
    1.6620    9.0030  -14.7410 N   0  0  0  0  0  4  0  0  0  0  0  0
    1.8930   10.1450  -13.9380 C   0  0  0  0  0  0  0  0  0  0  0  0
    2.2120   10.0020  -12.6260 C   0  0  0  0  0  0  0  0  0  0  0  0
    2.4340   11.1490  -11.8680 C   0  0  0  0  0  3  0  0  0  0  0  0
    2.3280   12.3930  -12.4550 C   0  0  0  0  0  0  0  0  0  0  0  0
    2.0010   12.5390  -13.7950 C   0  0  0  0  0  3  0  0  0  0  0  0
    1.7820   11.3820  -14.5410 C   0  0  0  0  0  3  0  0  0  0  0  0
    2.5500   13.6460  -11.6640 C   0  0  0  0  0  1  0  0  0  0  0  0
    2.3480    8.7040  -11.9300 C   0  0  0  0  0  2  0  0  0  0  0  0
    2.7140    8.8840  -15.7380 C   0  0  0  0  0  1  0  0  0  0  0  0
    3.3250    6.7760  -13.1150 C   0  0  0  0  0  0  0  0  0  0  0  0
    4.2900    7.3600  -13.7260 O   0  0  0  0  0  0  0  0  0  0  0  0
   -0.0250    7.2200  -11.5940 O   0  0  0  0  0  0  0  0  0  0  0  0
    0.7990    9.2640  -15.3180 H   0  0  0  0  0  0  0  0  0  0  0  0
    4.7310    4.7000  -13.2090 C   0  0  0  0  0  0  0  0  0  0  0  0
    6.0130    5.1260  -12.8590 C   0  0  0  0  0  3  0  0  0  0  0  0
    7.1440    4.4470  -13.2250 C   0  0  0  0  0  3  0  0  0  0  0  0
    7.0800    3.2760  -13.9800 C   0  0  0  0  0  0  0  0  0  0  0  0
    8.5420    2.4170  -14.4290 Cl  0  0  0  0  0  0  0  0  0  0  0  0
    5.8120    2.8530  -14.3280 C   0  0  0  0  0  3  0  0  0  0  0  0
    4.6780    3.5360  -13.9600 C   0  0  0  0  0  3  0  0  0  0  0  0
  1  2  1  0  0  0  0
  2  3  2  0  0  0  0
  2  4  1  0  0  0  0
  5  4  1  0  0  0  0
  5 20  2  0  0  0  0
  6  7  1  6  0  0  0
  6  5  1  0  0  0  0
  6 16  1  0  0  0  0
  8  7  1  0  0  0  0
  8  9  1  0  0  0  0
  9 10  1  0  0  0  0
 10 16  1  0  0  0  0
 10 11  2  0  0  0  0
 12 11  1  0  0  0  0
 12 15  1  0  0  0  0
 13 12  2  0  0  0  0
 14  9  2  0  0  0  0
 14 13  1  0  0  0  0
 17  8  1  0  0  0  0
 18  1  1  0  0  0  0
 18  6  1  0  0  0  0
 19 18  2  0  0  0  0
 21  8  1  0  0  0  0
 22 23  1  0  0  0  0
 22  1  1  0  0  0  0
 24 23  2  0  0  0  0
 25 24  1  0  0  0  0
 26 25  1  0  0  0  0
 27 25  2  0  0  0  0
 27 28  1  0  0  0  0
 28 22  2  0  0  0  0
M  END
>  <Pose>
1

>  <Score>
-7.086

$$$$
