/Users/jonathanwahrer/Desktop/Msc/3_Semester/Drug_Design_Praktikum/waehrer_HTS_screening/HTS_experiment/out/docking_results/vina_output/6q9y/2350_docked.pdbqt
 OpenBabel03222220473D

 23 26  0  0  1  0  0  0  0  0999 V2000
    0.3590    9.9910  -13.6720 N   0  0  0  0  0  0  0  0  0  0  0  0
    1.0870    8.9700  -14.3740 C   0  0  0  0  0  0  0  0  0  0  0  0
    2.1950    9.1720  -14.9310 O   0  0  0  0  0  0  0  0  0  0  0  0
    0.3510    7.6820  -14.3400 C   0  0  1  0  0  3  0  0  0  0  0  0
    1.0650    6.5990  -13.5980 C   0  0  1  0  0  3  0  0  0  0  0  0
    1.8900    7.2620  -12.5150 C   0  0  1  0  0  3  0  0  0  0  0  0
    0.8000    7.8490  -11.6200 C   0  0  1  0  0  3  0  0  0  0  0  0
   -0.5120    7.3550  -12.1830 C   0  0  1  0  0  3  0  0  0  0  0  0
   -0.8800    8.0000  -13.4820 C   0  0  1  0  0  3  0  0  0  0  0  0
   -0.9430    9.4810  -13.4310 C   0  0  0  0  0  0  0  0  0  0  0  0
   -1.9900   10.1370  -13.2110 O   0  0  0  0  0  0  0  0  0  0  0  0
   -0.0330    5.9850  -12.7130 C   0  0  0  0  0  2  0  0  0  0  0  0
    0.8010   11.2780  -13.2640 C   0  0  0  0  0  0  0  0  0  0  0  0
   -0.0690   12.3740  -13.3010 C   0  0  0  0  0  3  0  0  0  0  0  0
    0.3560   13.6230  -12.9160 C   0  0  0  0  0  3  0  0  0  0  0  0
    1.6490   13.8410  -12.4800 C   0  0  0  0  0  0  0  0  0  0  0  0
    2.1690   15.4540  -11.9950 Cl  0  0  0  0  0  0  0  0  0  0  0  0
    2.5310   12.7710  -12.4350 C   0  0  0  0  0  3  0  0  0  0  0  0
    2.0790   11.5330  -12.8260 C   0  0  0  0  0  3  0  0  0  0  0  0
    2.5260    6.2700  -11.8010 O   0  0  0  0  0  0  0  0  0  0  0  0
    3.2290    6.5830  -11.1860 H   0  0  0  0  0  0  0  0  0  0  0  0
    0.8840    7.3330  -10.3290 O   0  0  0  0  0  0  0  0  0  0  0  0
   -0.0140    6.9430  -10.1070 H   0  0  0  0  0  0  0  0  0  0  0  0
  1 10  1  0  0  0  0
  1 13  1  0  0  0  0
  2  1  1  0  0  0  0
  3  2  2  0  0  0  0
  4  2  1  1  0  0  0
  4  5  1  0  0  0  0
  4  9  1  0  0  0  0
  5 12  1  1  0  0  0
  5  6  1  0  0  0  0
  6 20  1  1  0  0  0
  6  7  1  0  0  0  0
  7 22  1  1  0  0  0
  8 12  1  6  0  0  0
  8  7  1  0  0  0  0
  9 10  1  1  0  0  0
  9  8  1  0  0  0  0
 10 11  2  0  0  0  0
 13 19  1  0  0  0  0
 14 13  2  0  0  0  0
 14 15  1  0  0  0  0
 15 16  2  0  0  0  0
 16 18  1  0  0  0  0
 16 17  1  0  0  0  0
 19 18  2  0  0  0  0
 20 21  1  0  0  0  0
 22 23  1  0  0  0  0
M  END
>  <Pose>
1

>  <Score>
-8.543

$$$$
