/Users/jonathanwahrer/Desktop/Msc/3_Semester/Drug_Design_Praktikum/waehrer_HTS_screening/HTS_experiment/out/docking_results/vina_output/6q9y/2359_docked.pdbqt
 OpenBabel03222220483D

 32 35  0  0  1  0  0  0  0  0999 V2000
   -1.6950    8.5240  -13.8140 N   0  0  0  0  0  0  0  0  0  0  0  0
   -1.7540    7.2340  -14.4450 C   0  0  0  0  0  0  0  0  0  0  0  0
   -0.7020    6.5630  -14.6780 O   0  0  0  0  0  0  0  0  0  0  0  0
   -3.0430    6.7520  -14.7920 N   0  0  0  0  0  0  0  0  0  0  0  0
   -4.2240    7.5380  -14.5150 C   0  0  0  0  0  0  0  0  0  0  0  0
   -5.2920    6.9220  -14.4130 O   0  0  0  0  0  0  0  0  0  0  0  0
   -4.1040    8.9760  -14.3730 C   0  0  2  0  0  3  0  0  0  0  0  0
   -2.8830    9.2580  -13.5620 C   0  0  0  0  0  0  0  0  0  0  0  0
   -2.8330   10.1210  -12.6480 O   0  0  0  0  0  0  0  0  0  0  0  0
   -3.1070    5.8250  -15.2480 H   0  0  0  0  0  0  0  0  0  0  0  0
   -5.2640    9.7120  -13.9230 C   0  0  2  0  0  3  0  0  0  0  0  0
   -5.7260   10.8690  -14.3380 C   0  0  0  0  0  2  0  0  0  0  0  0
   -6.9510   11.2570  -13.5960 C   0  0  2  0  0  3  0  0  0  0  0  0
   -7.2890   10.0460  -12.8840 N   0  0  0  0  0  0  0  0  0  0  0  0
   -6.1410    9.2570  -12.8710 N   0  0  0  0  0  0  0  0  0  0  0  0
   -8.1200    9.5590  -13.2820 H   0  0  0  0  0  0  0  0  0  0  0  0
   -5.9970    8.4830  -12.1890 H   0  0  0  0  0  0  0  0  0  0  0  0
   -8.0780   11.5900  -14.4750 C   0  0  0  0  0  0  0  0  0  0  0  0
   -8.2490   10.8420  -15.6310 C   0  0  0  0  0  3  0  0  0  0  0  0
   -9.2950   11.1270  -16.4760 C   0  0  0  0  0  0  0  0  0  0  0  0
  -10.1860   12.1400  -16.2070 C   0  0  0  0  0  3  0  0  0  0  0  0
  -10.0300   12.8910  -15.0660 C   0  0  0  0  0  3  0  0  0  0  0  0
   -8.9670   12.6000  -14.2110 C   0  0  0  0  0  3  0  0  0  0  0  0
   -9.4790   10.3790  -17.6460 O   0  0  0  0  0  0  0  0  0  0  0  0
  -10.0530    9.5540  -17.6140 H   0  0  0  0  0  0  0  0  0  0  0  0
   -0.3850    9.0210  -13.4590 C   0  0  0  0  0  0  0  0  0  0  0  0
    0.0900   10.2240  -13.9450 C   0  0  0  0  0  3  0  0  0  0  0  0
    1.3380   10.7240  -13.6270 C   0  0  0  0  0  3  0  0  0  0  0  0
    2.1640    9.9970  -12.7810 C   0  0  0  0  0  0  0  0  0  0  0  0
    3.7300   10.6520  -12.3990 Cl  0  0  0  0  0  0  0  0  0  0  0  0
    1.7080    8.7810  -12.2790 C   0  0  0  0  0  3  0  0  0  0  0  0
    0.4530    8.3120  -12.6200 C   0  0  0  0  0  3  0  0  0  0  0  0
  1  8  1  0  0  0  0
  1 26  1  0  0  0  0
  2  1  1  0  0  0  0
  3  2  2  0  0  0  0
  4  5  1  0  0  0  0
  4  2  1  0  0  0  0
  5  6  2  0  0  0  0
  7  5  1  1  0  0  0
  7 11  1  0  0  0  0
  7  8  1  0  0  0  0
  8  9  2  0  0  0  0
 10  4  1  0  0  0  0
 11 12  1  1  0  0  0
 11 15  1  0  0  0  0
 12 13  1  0  0  0  0
 13 18  1  6  0  0  0
 13 14  1  0  0  0  0
 14 15  1  0  0  0  0
 15 17  1  0  0  0  0
 16 14  1  0  0  0  0
 18 23  1  0  0  0  0
 19 18  2  0  0  0  0
 20 21  2  0  0  0  0
 20 19  1  0  0  0  0
 21 22  1  0  0  0  0
 22 23  2  0  0  0  0
 24 25  1  0  0  0  0
 24 20  1  0  0  0  0
 26 32  1  0  0  0  0
 27 28  1  0  0  0  0
 27 26  2  0  0  0  0
 28 29  2  0  0  0  0
 29 30  1  0  0  0  0
 29 31  1  0  0  0  0
 32 31  2  0  0  0  0
M  END
>  <Pose>
1

>  <Score>
-10.304

$$$$
