/Users/jonathanwahrer/Desktop/Msc/3_Semester/Drug_Design_Praktikum/waehrer_HTS_screening/HTS_experiment/out/docking_results/vina_output/6q9y/2363_docked.pdbqt
 OpenBabel03222220483D

 33 36  0  0  1  0  0  0  0  0999 V2000
    1.5780    7.8670  -13.6130 N   0  0  0  0  0  0  0  0  0  0  0  0
    1.4260    9.2730  -13.7360 C   0  0  2  0  0  0  0  0  0  0  0  0
    0.0520    9.7460  -13.6530 C   0  0  0  0  0  0  0  0  0  0  0  0
   -1.0140    8.9030  -13.5620 C   0  0  0  0  0  0  0  0  0  0  0  0
   -2.3180    9.4300  -13.5080 C   0  0  0  0  0  3  0  0  0  0  0  0
   -2.5770   10.7770  -13.5410 C   0  0  0  0  0  3  0  0  0  0  0  0
   -1.4820   11.6190  -13.6320 C   0  0  0  0  0  3  0  0  0  0  0  0
   -0.2220   11.1170  -13.6850 C   0  0  0  0  0  3  0  0  0  0  0  0
   -0.8550    7.4760  -13.4940 N   0  0  0  0  0  0  0  0  0  0  0  0
    0.4760    7.0030  -13.5250 C   0  0  0  0  0  0  0  0  0  0  0  0
    0.7010    5.7500  -13.4710 O   0  0  0  0  0  0  0  0  0  0  0  0
   -1.6890    6.8660  -13.4290 H   0  0  0  0  0  0  0  0  0  0  0  0
    1.8870    9.5630  -15.0690 O   0  0  0  0  0  0  0  0  0  0  0  0
    2.8510    9.7960  -15.0410 H   0  0  0  0  0  0  0  0  0  0  0  0
    2.3420   10.0220  -12.8380 C   0  0  0  0  0  0  0  0  0  0  0  0
    2.2730    9.8680  -11.6170 O   0  0  0  0  0  0  0  0  0  0  0  0
    3.2730   10.8980  -13.4270 N   0  0  0  0  0  0  0  0  0  0  0  0
    3.3380   11.0370  -14.4730 H   0  0  0  0  0  0  0  0  0  0  0  0
    4.2220   11.6850  -12.6380 C   0  0  0  0  0  2  0  0  0  0  0  0
    4.1420   13.1340  -12.9290 C   0  0  0  0  0  2  0  0  0  0  0  0
    3.0250   13.8390  -12.4340 N   0  0  0  0  0  0  0  0  0  0  0  0
    2.6740   13.6910  -11.0820 C   0  0  0  0  0  2  0  0  0  0  0  0
    1.6240   14.7490  -10.7310 C   0  0  0  0  0  2  0  0  0  0  0  0
    0.7880   14.9900  -11.8360 O   0  0  0  0  0  0  0  0  0  0  0  0
    1.4630   15.6830  -12.8390 C   0  0  0  0  0  2  0  0  0  0  0  0
    2.8800   15.1790  -12.8910 C   0  0  0  0  0  2  0  0  0  0  0  0
    2.9260    7.2860  -13.5700 C   0  0  0  0  0  0  0  0  0  0  0  0
    3.2070    6.1810  -12.8120 C   0  0  0  0  0  3  0  0  0  0  0  0
    4.4900    5.6410  -12.7810 C   0  0  0  0  0  3  0  0  0  0  0  0
    5.4880    6.2290  -13.5260 C   0  0  0  0  0  0  0  0  0  0  0  0
    7.1140    5.5370  -13.4810 Cl  0  0  0  0  0  0  0  0  0  0  0  0
    5.2320    7.3410  -14.2970 C   0  0  0  0  0  3  0  0  0  0  0  0
    3.9460    7.8520  -14.3050 C   0  0  0  0  0  3  0  0  0  0  0  0
  1 27  1  0  0  0  0
  1 10  1  0  0  0  0
  2 13  1  6  0  0  0
  2  3  1  0  0  0  0
  2  1  1  0  0  0  0
  2 15  1  0  0  0  0
  3  4  1  0  0  0  0
  4  5  2  0  0  0  0
  4  9  1  0  0  0  0
  6  5  1  0  0  0  0
  7  6  2  0  0  0  0
  8  3  2  0  0  0  0
  8  7  1  0  0  0  0
  9 12  1  0  0  0  0
 10  9  1  0  0  0  0
 10 11  2  0  0  0  0
 13 14  1  0  0  0  0
 15 16  2  0  0  0  0
 17 15  1  0  0  0  0
 17 19  1  0  0  0  0
 18 17  1  0  0  0  0
 20 19  1  0  0  0  0
 20 21  1  0  0  0  0
 21 22  1  0  0  0  0
 22 23  1  0  0  0  0
 24 23  1  0  0  0  0
 25 24  1  0  0  0  0
 26 25  1  0  0  0  0
 26 21  1  0  0  0  0
 27 28  1  0  0  0  0
 28 29  2  0  0  0  0
 30 31  1  0  0  0  0
 30 29  1  0  0  0  0
 32 30  2  0  0  0  0
 33 32  1  0  0  0  0
 33 27  2  0  0  0  0
M  END
>  <Pose>
1

>  <Score>
-8.504

$$$$
