/Users/jonathanwahrer/Desktop/Msc/3_Semester/Drug_Design_Praktikum/waehrer_HTS_screening/HTS_experiment/out/docking_results/vina_output/6q9y/2365_docked.pdbqt
 OpenBabel03222220493D

 32 36  0  0  1  0  0  0  0  0999 V2000
   -1.2850    9.1180  -13.7440 N   0  0  0  0  0  0  0  0  0  0  0  0
   -0.1930    8.3520  -14.1780 C   0  0  0  0  0  0  0  0  0  0  0  0
   -0.4210    7.2090  -14.6800 O   0  0  0  0  0  0  0  0  0  0  0  0
   -1.1120   10.0650  -13.3280 H   0  0  0  0  0  0  0  0  0  0  0  0
    1.2210    8.7870  -14.0910 C   0  0  1  0  0  0  0  0  0  0  0  0
    1.3260   10.1280  -13.3930 C   0  0  0  0  0  2  0  0  0  0  0  0
    2.7570   10.5790  -13.3130 C   0  0  1  0  0  0  0  0  0  0  0  0
    3.5030    9.5550  -12.4560 C   0  0  0  0  0  2  0  0  0  0  0  0
    3.4300   10.6340  -14.6490 C   0  0  0  0  0  2  0  0  0  0  0  0
    3.4150    8.2070  -13.0960 C   0  0  1  0  0  3  0  0  0  0  0  0
    1.9730    7.7820  -13.2450 C   0  0  0  0  0  2  0  0  0  0  0  0
    4.0650    8.2650  -14.4600 C   0  0  0  0  0  2  0  0  0  0  0  0
    3.3090    9.2760  -15.2900 C   0  0  1  0  0  3  0  0  0  0  0  0
    1.8740    8.8520  -15.4540 C   0  0  0  0  0  2  0  0  0  0  0  0
    2.7670   11.8600  -12.6340 N   0  0  0  0  0  0  0  0  0  0  0  0
    3.6770   12.3930  -11.8390 N   0  0  0  0  0  0  0  0  0  0  0  0
    3.3270   13.5710  -11.4180 N   0  0  0  0  0  0  0  0  0  0  0  0
    2.1450   13.8530  -11.9380 C   0  0  0  0  0  3  0  0  0  0  0  0
    1.7920   12.7810  -12.7020 N   0  0  0  0  0  0  0  0  0  0  0  0
   -2.5770    8.6540  -13.8550 N   0  0  0  0  0  0  0  0  0  0  0  0
   -3.6710    9.4180  -14.3250 C   0  0  0  0  0  0  0  0  0  0  0  0
   -3.5220   10.6130  -14.6870 O   0  0  0  0  0  0  0  0  0  0  0  0
   -2.7820    7.6560  -13.5690 H   0  0  0  0  0  0  0  0  0  0  0  0
   -5.0500    8.8580  -14.4220 C   0  0  1  0  0  3  0  0  0  0  0  0
   -5.0650    7.3680  -14.3620 C   0  0  0  0  0  1  0  0  0  0  0  0
   -5.9110    9.4710  -13.3420 C   0  0  0  0  0  2  0  0  0  0  0  0
   -6.9010   10.3790  -13.8710 N   0  0  0  0  0  0  0  0  0  0  0  0
   -7.5000   10.3460  -15.0890 C   0  0  0  0  0  3  0  0  0  0  0  0
   -8.3890   11.3970  -15.1960 C   0  0  0  0  0  0  0  0  0  0  0  0
   -9.5200   11.8760  -16.6530 Br  0  0  0  0  0  0  0  0  0  0  0  0
   -8.2960   12.0690  -13.9750 C   0  0  0  0  0  3  0  0  0  0  0  0
   -7.3900   11.4070  -13.2320 N   0  0  0  0  0  0  0  0  0  0  0  0
  1  4  1  0  0  0  0
  2  1  1  0  0  0  0
  3  2  2  0  0  0  0
  5  2  1  6  0  0  0
  5  6  1  0  0  0  0
  5 11  1  0  0  0  0
  6  7  1  0  0  0  0
  7  9  1  6  0  0  0
  7 15  1  0  0  0  0
  7  8  1  0  0  0  0
 10 12  1  6  0  0  0
 10  8  1  0  0  0  0
 11 10  1  0  0  0  0
 13 14  1  1  0  0  0
 13  9  1  0  0  0  0
 13 12  1  0  0  0  0
 14  5  1  0  0  0  0
 15 16  1  0  0  0  0
 16 17  2  0  0  0  0
 18 17  1  0  0  0  0
 19 15  1  0  0  0  0
 19 18  2  0  0  0  0
 20  1  1  0  0  0  0
 20 23  1  0  0  0  0
 21 20  1  0  0  0  0
 22 21  2  0  0  0  0
 24 25  1  1  0  0  0
 24 21  1  0  0  0  0
 24 26  1  0  0  0  0
 27 26  1  0  0  0  0
 27 32  1  0  0  0  0
 28 27  1  0  0  0  0
 29 28  2  0  0  0  0
 29 31  1  0  0  0  0
 30 29  1  0  0  0  0
 31 32  2  0  0  0  0
M  END
>  <Pose>
1

>  <Score>
-8.703

$$$$
