/Users/jonathanwahrer/Desktop/Msc/3_Semester/Drug_Design_Praktikum/waehrer_HTS_screening/HTS_experiment/out/docking_results/vina_output/6q9y/2373_docked.pdbqt
 OpenBabel03222220493D

 28 31  0  0  1  0  0  0  0  0999 V2000
    0.3510   13.9740  -12.6320 N   0  0  0  0  0  0  0  0  0  0  0  0
    1.4070   13.2460  -12.9520 C   0  0  2  0  0  3  0  0  0  0  0  0
    1.0390   11.9860  -13.3080 N   0  0  0  0  0  0  0  0  0  0  0  0
   -0.2690   11.9070  -13.2080 C   0  0  0  0  0  0  0  0  0  0  0  0
   -0.7060   13.1780  -12.7790 C   0  0  0  0  0  3  0  0  0  0  0  0
    1.9630   10.9810  -13.7530 C   0  0  0  0  0  2  0  0  0  0  0  0
    2.7590   10.4280  -12.5730 C   0  0  0  0  0  2  0  0  0  0  0  0
    2.9750   11.6330  -11.6510 C   0  0  0  0  0  2  0  0  0  0  0  0
    3.7530   12.6680  -12.4150 C   0  0  0  0  0  2  0  0  0  0  0  0
    2.8030   13.7790  -12.8900 C   0  0  0  0  0  2  0  0  0  0  0  0
    0.2340   15.3660  -12.1870 C   0  0  0  0  0  2  0  0  0  0  0  0
   -0.5440   16.1100  -13.2010 C   0  0  0  0  0  0  0  0  0  0  0  0
   -0.2520   15.9010  -14.4260 O   0  0  0  0  0  0  0  0  0  0  0  0
   -1.6000   17.0450  -12.8830 C   0  0  0  0  0  0  0  0  0  0  0  0
   -1.5570   17.7150  -11.6550 C   0  0  0  0  0  3  0  0  0  0  0  0
   -2.5320   18.6110  -11.2940 C   0  0  0  0  0  3  0  0  0  0  0  0
   -3.5930   18.8910  -12.1190 C   0  0  0  0  0  0  0  0  0  0  0  0
   -4.8650   20.0170  -11.7220 Cl  0  0  0  0  0  0  0  0  0  0  0  0
   -3.6260   18.2230  -13.3330 C   0  0  0  0  0  3  0  0  0  0  0  0
   -2.6530   17.3220  -13.7030 C   0  0  0  0  0  3  0  0  0  0  0  0
   -1.1850   10.7970  -13.4870 C   0  0  0  0  0  0  0  0  0  0  0  0
   -0.9060    9.4750  -13.3520 C   0  0  0  0  0  3  0  0  0  0  0  0
   -1.8000    8.4640  -13.7020 C   0  0  0  0  0  3  0  0  0  0  0  0
   -3.0320    8.7740  -14.2090 C   0  0  0  0  0  0  0  0  0  0  0  0
   -3.3460   10.1040  -14.3560 C   0  0  0  0  0  3  0  0  0  0  0  0
   -2.4500   11.0910  -14.0070 C   0  0  0  0  0  3  0  0  0  0  0  0
   -3.9530    7.7750  -14.5700 O   0  0  0  0  0  0  0  0  0  0  0  0
   -4.5110    7.6880  -15.8530 C   0  0  0  0  0  1  0  0  0  0  0  0
  1 11  1  0  0  0  0
  2 10  1  1  0  0  0
  2  1  1  0  0  0  0
  3  4  1  0  0  0  0
  3  2  1  0  0  0  0
  4  5  2  0  0  0  0
  5  1  1  0  0  0  0
  6  3  1  0  0  0  0
  6  7  1  0  0  0  0
  7  8  1  0  0  0  0
  9  8  1  0  0  0  0
 10  9  1  0  0  0  0
 12 14  1  0  0  0  0
 12 11  1  0  0  0  0
 13 12  2  0  0  0  0
 14 15  1  0  0  0  0
 15 16  2  0  0  0  0
 17 18  1  0  0  0  0
 17 16  1  0  0  0  0
 19 17  2  0  0  0  0
 20 19  1  0  0  0  0
 20 14  2  0  0  0  0
 21 22  1  0  0  0  0
 21  4  1  0  0  0  0
 23 22  2  0  0  0  0
 24 23  1  0  0  0  0
 25 24  2  0  0  0  0
 25 26  1  0  0  0  0
 26 21  2  0  0  0  0
 27 24  1  0  0  0  0
 28 27  1  0  0  0  0
M  END
>  <Pose>
1

>  <Score>
-10.800

$$$$
