/Users/jonathanwahrer/Desktop/Msc/3_Semester/Drug_Design_Praktikum/waehrer_HTS_screening/HTS_experiment/out/docking_results/vina_output/6q9y/2375_docked.pdbqt
 OpenBabel03222220493D

 37 40  0  0  1  0  0  0  0  0999 V2000
   -0.3620   15.4450  -12.4380 C   0  0  0  0  0  0  0  0  0  0  0  0
    0.9310   15.5180  -11.8230 C   0  0  0  0  0  1  0  0  0  0  0  0
   -0.7740   16.5640  -13.3840 C   0  0  0  0  0  0  0  0  0  0  0  0
   -1.5260   17.6610  -12.9010 N   0  0  0  0  0  0  0  0  0  0  0  0
   -2.2750   18.5900  -13.6830 C   0  0  0  0  0  3  0  0  0  0  0  0
   -1.3060   18.0910  -11.5060 C   0  0  0  0  0  2  0  0  0  0  0  0
   -3.5180   19.1430  -13.0320 C   0  0  0  0  0  3  0  0  0  0  0  0
   -3.7470   18.8110  -11.6180 C   0  0  1  0  0  0  0  0  0  0  0  0
   -2.5330   18.4210  -10.8110 C   0  0  0  0  0  2  0  0  0  0  0  0
   -0.4360   16.4950  -14.5630 O   0  0  0  0  0  0  0  0  0  0  0  0
   -4.3920   19.8920  -10.8380 C   0  0  0  0  0  0  0  0  0  0  0  0
   -5.6660   20.2640  -11.2430 C   0  0  0  0  0  3  0  0  0  0  0  0
   -6.3960   21.2550  -10.5700 C   0  0  0  0  0  3  0  0  0  0  0  0
   -5.8510   21.8810   -9.4730 C   0  0  0  0  0  0  0  0  0  0  0  0
   -6.7710   23.1270   -8.5950 Cl  0  0  0  0  0  0  0  0  0  0  0  0
   -4.5810   21.5100   -9.0680 C   0  0  0  0  0  3  0  0  0  0  0  0
   -3.8770   20.5290   -9.7550 C   0  0  0  0  0  3  0  0  0  0  0  0
   -4.6450   17.7020  -11.5910 O   0  0  0  0  0  0  0  0  0  0  0  0
   -4.7300   17.3340  -10.6950 H   0  0  0  0  0  0  0  0  0  0  0  0
   -0.9400   14.1990  -12.8850 N   0  0  0  0  0  4  0  0  0  0  0  0
   -0.2410   13.0060  -13.0580 C   0  0  0  0  0  0  0  0  0  0  0  0
    1.0990   13.2200  -12.7990 O   0  0  0  0  0  0  0  0  0  0  0  0
   -0.4750   11.6780  -13.3790 C   0  0  0  0  0  2  0  0  0  0  0  0
   -1.9780   14.3350  -13.1310 H   0  0  0  0  0  0  0  0  0  0  0  0
   -1.3100   10.7070  -13.6050 C   0  0  1  0  0  3  0  0  0  0  0  0
   -2.6620   11.0230  -14.0840 N   0  0  0  0  0  0  0  0  0  0  0  0
   -3.5850   10.0590  -14.4380 N   0  0  0  0  0  0  0  0  0  0  0  0
   -2.8930   12.0520  -14.1470 H   0  0  0  0  0  0  0  0  0  0  0  0
   -3.3010    8.7050  -14.3650 C   0  0  0  0  0  0  0  0  0  0  0  0
   -4.5410   10.3600  -14.7750 H   0  0  0  0  0  0  0  0  0  0  0  0
   -4.1120    7.7940  -14.6700 O   0  0  0  0  0  0  0  0  0  0  0  0
   -1.9600    8.2870  -13.8920 C   0  0  0  0  0  0  0  0  0  0  0  0
   -1.0700    9.2780  -13.5530 C   0  0  0  0  0  0  0  0  0  0  0  0
   -1.6550    6.9470  -13.8930 C   0  0  0  0  0  3  0  0  0  0  0  0
    0.2130    8.8390  -13.2100 C   0  0  0  0  0  3  0  0  0  0  0  0
    0.5360    7.4900  -13.2070 C   0  0  0  0  0  3  0  0  0  0  0  0
   -0.3870    6.5350  -13.5430 C   0  0  0  0  0  3  0  0  0  0  0  0
  1  2  1  0  0  0  0
  3  4  1  0  0  0  0
  3  1  1  0  0  0  0
  4  6  1  0  0  0  0
  5  7  2  0  0  0  0
  5  4  1  0  0  0  0
  6  9  1  0  0  0  0
  7  8  1  0  0  0  0
  8 18  1  1  0  0  0
  8 11  1  0  0  0  0
  8  9  1  0  0  0  0
 10  3  2  0  0  0  0
 11 17  1  0  0  0  0
 12 11  2  0  0  0  0
 12 13  1  0  0  0  0
 13 14  2  0  0  0  0
 14 16  1  0  0  0  0
 14 15  1  0  0  0  0
 17 16  2  0  0  0  0
 18 19  1  0  0  0  0
 20  1  2  0  0  0  0
 21 20  1  0  0  0  0
 21 22  2  0  0  0  0
 23 21  1  0  0  0  0
 24 20  1  0  0  0  0
 25 33  1  0  0  0  0
 25 23  1  6  0  0  0
 26 25  1  0  0  0  0
 27 29  1  0  0  0  0
 27 26  1  0  0  0  0
 28 26  1  0  0  0  0
 29 32  1  0  0  0  0
 30 27  1  0  0  0  0
 31 29  2  0  0  0  0
 32 33  1  0  0  0  0
 33 35  2  0  0  0  0
 34 32  2  0  0  0  0
 34 37  1  0  0  0  0
 35 36  1  0  0  0  0
 37 36  2  0  0  0  0
M  END
>  <Pose>
1

>  <Score>
-11.507

$$$$
