/Users/jonathanwahrer/Desktop/Msc/3_Semester/Drug_Design_Praktikum/waehrer_HTS_screening/HTS_experiment/out/docking_results/vina_output/6q9y/2381_docked.pdbqt
 OpenBabel03222220503D

 30 33  0  0  0  0  0  0  0  0999 V2000
    2.3890    7.1680  -13.1760 N   0  0  0  0  0  0  0  0  0  0  0  0
    1.7290    6.9200  -11.9240 C   0  0  0  0  0  2  0  0  0  0  0  0
    0.3790    6.2710  -12.1290 C   0  0  0  0  0  2  0  0  0  0  0  0
   -0.2630    6.7300  -13.3350 N   0  0  0  0  0  0  0  0  0  0  0  0
    0.2650    7.8960  -14.0000 C   0  0  0  0  0  2  0  0  0  0  0  0
    1.6960    7.6030  -14.3720 C   0  0  0  0  0  2  0  0  0  0  0  0
   -1.3910    6.0420  -13.8500 C   0  0  0  0  0  0  0  0  0  0  0  0
   -1.8610    5.0110  -13.2690 O   0  0  0  0  0  0  0  0  0  0  0  0
    3.8030    6.9750  -13.2480 C   0  0  0  0  0  0  0  0  0  0  0  0
    4.3920    5.7410  -13.0610 C   0  0  0  0  0  0  0  0  0  0  0  0
    3.3750    4.3580  -12.7270 Cl  0  0  0  0  0  0  0  0  0  0  0  0
    5.7710    5.6350  -13.1470 C   0  0  0  0  0  0  0  0  0  0  0  0
    6.5780    6.6810  -13.4040 N   0  0  0  0  0  0  0  0  0  0  0  0
    6.3120    4.5220  -12.9780 O   0  0  0  0  0  0  0  0  0  0  0  0
    5.9970    7.8560  -13.5810 N   0  0  0  0  0  0  0  0  0  0  0  0
    4.6630    8.0270  -13.5110 C   0  0  0  0  0  3  0  0  0  0  0  0
    7.9960    6.5090  -13.4790 C   0  0  0  0  0  0  0  0  0  0  0  0
    8.7520    6.3560  -12.3350 C   0  0  0  0  0  3  0  0  0  0  0  0
   10.1200    6.1900  -12.3980 C   0  0  0  0  0  3  0  0  0  0  0  0
   10.7960    6.1710  -13.6010 C   0  0  0  0  0  3  0  0  0  0  0  0
   10.0470    6.3230  -14.7480 C   0  0  0  0  0  3  0  0  0  0  0  0
    8.6820    6.4880  -14.6800 C   0  0  0  0  0  3  0  0  0  0  0  0
   -2.0890    6.4740  -15.0890 C   0  0  0  0  0  2  0  0  0  0  0  0
   -3.4620    6.6660  -14.8780 O   0  0  0  0  0  0  0  0  0  0  0  0
   -3.9570    7.9190  -14.5700 C   0  0  0  0  0  0  0  0  0  0  0  0
   -3.3050    9.0570  -14.3060 N   0  0  0  0  0  0  0  0  0  0  0  0
   -4.1450   10.0100  -14.0660 O   0  0  0  0  0  0  0  0  0  0  0  0
   -5.3890    9.5870  -14.1510 C   0  0  0  0  0  0  0  0  0  0  0  0
   -5.3010    8.2480  -14.4740 C   0  0  0  0  0  3  0  0  0  0  0  0
   -6.5640   10.4500  -13.9290 C   0  0  0  0  0  1  0  0  0  0  0  0
  1  2  1  0  0  0  0
  3  2  1  0  0  0  0
  4  3  1  0  0  0  0
  5  4  1  0  0  0  0
  6  5  1  0  0  0  0
  6  1  1  0  0  0  0
  7  4  1  0  0  0  0
  7  8  2  0  0  0  0
  9  1  1  0  0  0  0
  9 10  2  0  0  0  0
 10 11  1  0  0  0  0
 12 10  1  0  0  0  0
 12 14  2  0  0  0  0
 13 12  1  0  0  0  0
 15 16  2  0  0  0  0
 15 13  1  0  0  0  0
 16  9  1  0  0  0  0
 17 13  1  0  0  0  0
 17 18  1  0  0  0  0
 19 18  2  0  0  0  0
 20 19  1  0  0  0  0
 21 22  1  0  0  0  0
 21 20  2  0  0  0  0
 22 17  2  0  0  0  0
 23 24  1  0  0  0  0
 23  7  1  0  0  0  0
 24 25  1  0  0  0  0
 25 29  1  0  0  0  0
 25 26  2  0  0  0  0
 26 27  1  0  0  0  0
 28 27  1  0  0  0  0
 28 30  1  0  0  0  0
 29 28  2  0  0  0  0
M  END
>  <Pose>
1

>  <Score>
-8.901

$$$$
