/Users/jonathanwahrer/Desktop/Msc/3_Semester/Drug_Design_Praktikum/waehrer_HTS_screening/HTS_experiment/out/docking_results/vina_output/6q9y/2386_docked.pdbqt
 OpenBabel03222220503D

 30 33  0  0  0  0  0  0  0  0999 V2000
   -4.6540    9.8930  -13.8580 Cl  0  0  0  0  0  0  0  0  0  0  0  0
   -2.9090    9.8790  -13.6240 C   0  0  0  0  0  0  0  0  0  0  0  0
   -2.2070   11.0170  -14.0140 C   0  0  0  0  0  3  0  0  0  0  0  0
   -0.8420   11.0220  -13.8380 C   0  0  0  0  0  0  0  0  0  0  0  0
   -0.2020    9.9190  -13.2870 C   0  0  0  0  0  0  0  0  0  0  0  0
   -0.9100    8.7870  -12.9010 C   0  0  0  0  0  3  0  0  0  0  0  0
   -2.2820    8.7830  -13.0790 C   0  0  0  0  0  3  0  0  0  0  0  0
    1.1650    9.8470  -13.0790 O   0  0  0  0  0  0  0  0  0  0  0  0
    2.2130   10.4740  -13.7650 C   0  0  0  0  0  0  0  0  0  0  0  0
    2.2050   11.9590  -13.7560 C   0  0  0  0  0  2  0  0  0  0  0  0
    0.9460   12.5940  -13.5360 N   0  0  0  0  0  0  0  0  0  0  0  0
   -0.2730   12.3130  -14.3070 C   0  0  0  0  0  2  0  0  0  0  0  0
    0.8410   13.5740  -12.5120 C   0  0  0  0  0  0  0  0  0  0  0  0
    1.8800   13.8270  -11.8610 O   0  0  0  0  0  0  0  0  0  0  0  0
    3.5400    9.9850  -13.1540 C   0  0  0  0  0  2  0  0  0  0  0  0
    3.4620    8.4820  -13.1190 C   0  0  0  0  0  2  0  0  0  0  0  0
    2.3340    7.9910  -13.7510 O   0  0  0  0  0  0  0  0  0  0  0  0
    2.2340    8.4080  -15.0670 C   0  0  0  0  0  2  0  0  0  0  0  0
    2.2600    9.9160  -15.1960 C   0  0  0  0  0  2  0  0  0  0  0  0
   -0.4040   14.2680  -12.2180 C   0  0  0  0  0  2  0  0  0  0  0  0
   -0.4600   15.7250  -12.4350 C   0  0  0  0  0  2  0  0  0  0  0  0
   -1.4520   16.2900  -13.3650 C   0  0  0  0  0  2  0  0  0  0  0  0
   -2.3150   17.3310  -12.9480 N   0  0  0  0  0  0  0  0  0  0  0  0
   -3.4880   17.7500  -13.6230 C   0  0  0  0  0  0  0  0  0  0  0  0
   -3.9900   17.2910  -14.6920 O   0  0  0  0  0  0  0  0  0  0  0  0
   -4.0410   18.8170  -12.8730 N   0  0  0  0  0  0  0  0  0  0  0  0
   -3.4330   18.8210  -11.5440 C   0  0  0  0  0  2  0  0  0  0  0  0
   -4.7590   19.5040  -13.1770 H   0  0  0  0  0  0  0  0  0  0  0  0
   -2.1490   18.1330  -11.7960 C   0  0  0  0  0  0  0  0  0  0  0  0
   -1.0910   18.2620  -11.0800 O   0  0  0  0  0  0  0  0  0  0  0  0
  1  2  1  0  0  0  0
  2  7  1  0  0  0  0
  3  4  1  0  0  0  0
  3  2  2  0  0  0  0
  4  5  2  0  0  0  0
  5  8  1  0  0  0  0
  5  6  1  0  0  0  0
  7  6  2  0  0  0  0
  9 10  1  0  0  0  0
  9 15  1  0  0  0  0
  9  8  1  0  0  0  0
 10 11  1  0  0  0  0
 11 13  1  0  0  0  0
 12  4  1  0  0  0  0
 12 11  1  0  0  0  0
 13 20  1  0  0  0  0
 13 14  2  0  0  0  0
 15 16  1  0  0  0  0
 17 16  1  0  0  0  0
 18 17  1  0  0  0  0
 19 18  1  0  0  0  0
 19  9  1  0  0  0  0
 21 20  1  0  0  0  0
 22 23  1  0  0  0  0
 22 21  1  0  0  0  0
 23 29  1  0  0  0  0
 24 23  1  0  0  0  0
 24 26  1  0  0  0  0
 25 24  2  0  0  0  0
 26 27  1  0  0  0  0
 28 26  1  0  0  0  0
 29 27  1  0  0  0  0
 29 30  2  0  0  0  0
M  END
>  <Pose>
1

>  <Score>
-9.016

$$$$
