/Users/jonathanwahrer/Desktop/Msc/3_Semester/Drug_Design_Praktikum/waehrer_HTS_screening/HTS_experiment/out/docking_results/vina_output/6q9y/2402_docked.pdbqt
 OpenBabel03222220513D

 33 36  0  0  1  0  0  0  0  0999 V2000
    1.5000    8.8480  -13.7390 C   0  0  2  0  0  3  0  0  0  0  0  0
    0.3720    8.1910  -13.1480 N   0  0  0  0  0  0  0  0  0  0  0  0
    0.7970    7.1580  -12.2730 C   0  0  0  0  0  0  0  0  0  0  0  0
    0.1510    6.4770  -11.4400 O   0  0  0  0  0  0  0  0  0  0  0  0
    2.2500    6.9500  -12.4740 C   0  0  0  0  0  0  0  0  0  0  0  0
    2.9830    6.1210  -11.8790 O   0  0  0  0  0  0  0  0  0  0  0  0
    2.6280    7.9070  -13.4970 C   0  0  0  0  0  0  0  0  0  0  0  0
    3.8330    7.9080  -14.0810 C   0  0  0  0  0  0  0  0  0  0  0  0
    4.0170    8.9300  -15.0210 O   0  0  0  0  0  1  0  0  0  0  0  0
    1.7270   10.2120  -13.2910 C   0  0  0  0  0  0  0  0  0  0  0  0
    0.8540   11.2090  -13.6790 C   0  0  0  0  0  3  0  0  0  0  0  0
    0.9770   12.5160  -13.3090 C   0  0  0  0  0  3  0  0  0  0  0  0
    2.0150   12.8940  -12.5070 C   0  0  0  0  0  0  0  0  0  0  0  0
    2.1430   14.7370  -12.0160 Br  0  0  0  0  0  0  0  0  0  0  0  0
    2.9190   11.9480  -12.0860 C   0  0  0  0  0  3  0  0  0  0  0  0
    2.7660   10.6200  -12.4820 C   0  0  0  0  0  3  0  0  0  0  0  0
    4.8730    6.9310  -13.7810 C   0  0  0  0  0  0  0  0  0  0  0  0
    4.8540    5.6430  -13.8040 O   0  0  0  0  0  0  0  0  0  0  0  0
    5.9750    5.0770  -13.4690 C   0  0  0  0  0  0  0  0  0  0  0  0
    6.8830    6.0840  -13.1780 C   0  0  0  0  0  0  0  0  0  0  0  0
    6.3910    3.7620  -13.3620 C   0  0  0  0  0  0  0  0  0  0  0  0
    6.1550    7.2580  -13.3850 C   0  0  0  0  0  3  0  0  0  0  0  0
    8.1620    5.7590  -12.7920 C   0  0  0  0  0  3  0  0  0  0  0  0
    8.5550    4.4450  -12.6890 C   0  0  0  0  0  3  0  0  0  0  0  0
    7.6520    3.4300  -12.9790 C   0  0  0  0  0  3  0  0  0  0  0  0
    5.4710    2.7780  -13.6570 O   0  0  0  0  0  0  0  0  0  0  0  0
    4.4830    2.2990  -12.7540 C   0  0  0  0  0  1  0  0  0  0  0  0
   -1.0100    8.5070  -13.3850 C   0  0  0  0  0  2  0  0  0  0  0  0
   -1.6880    7.4430  -14.2290 C   0  0  0  0  0  2  0  0  0  0  0  0
   -3.0870    7.6470  -14.3880 N   0  0  0  0  0  4  0  0  0  0  0  0
   -3.5170    9.0110  -14.4510 C   0  0  0  0  0  1  0  0  0  0  0  0
   -3.5980    6.8950  -15.5260 C   0  0  0  0  0  1  0  0  0  0  0  0
   -3.5650    7.2280  -13.5350 H   0  0  0  0  0  0  0  0  0  0  0  0
  1  7  1  0  0  0  0
  1 10  1  1  0  0  0
  1  2  1  0  0  0  0
  2  3  1  0  0  0  0
  3  4  2  0  0  0  0
  5  3  1  0  0  0  0
  5  6  2  0  0  0  0
  7  5  1  0  0  0  0
  8 17  1  0  0  0  0
  8  7  2  0  0  0  0
  9  8  1  0  0  0  0
 10 16  1  0  0  0  0
 11 12  1  0  0  0  0
 11 10  2  0  0  0  0
 12 13  2  0  0  0  0
 13 15  1  0  0  0  0
 13 14  1  0  0  0  0
 16 15  2  0  0  0  0
 17 22  2  0  0  0  0
 18 17  1  0  0  0  0
 18 19  1  0  0  0  0
 19 21  2  0  0  0  0
 19 20  1  0  0  0  0
 20 23  2  0  0  0  0
 21 25  1  0  0  0  0
 22 20  1  0  0  0  0
 23 24  1  0  0  0  0
 25 24  2  0  0  0  0
 26 21  1  0  0  0  0
 26 27  1  0  0  0  0
 28  2  1  0  0  0  0
 29 28  1  0  0  0  0
 30 29  1  0  0  0  0
 30 33  1  0  0  0  0
 31 30  1  0  0  0  0
 32 30  1  0  0  0  0
M  END
>  <Pose>
1

>  <Score>
-9.197

$$$$
