/Users/jonathanwahrer/Desktop/Msc/3_Semester/Drug_Design_Praktikum/waehrer_HTS_screening/HTS_experiment/out/docking_results/vina_output/6q9y/2403_docked.pdbqt
 OpenBabel03222220513D

 26 29  0  0  0  0  0  0  0  0999 V2000
    0.2130   14.7020  -12.7890 N   0  0  0  0  0  0  0  0  0  0  0  0
    1.0330   13.6410  -12.7530 C   0  0  0  0  0  0  0  0  0  0  0  0
    0.3520   12.4770  -13.0940 C   0  0  0  0  0  0  0  0  0  0  0  0
   -0.9190   12.8730  -13.3390 N   0  0  0  0  0  0  0  0  0  0  0  0
   -1.0060   14.1930  -13.1590 C   0  0  0  0  0  3  0  0  0  0  0  0
    0.9320   11.2600  -13.1350 N   0  0  0  0  0  0  0  0  0  0  0  0
    2.2400   11.2120  -12.8220 C   0  0  0  0  0  0  0  0  0  0  0  0
    2.7990   10.0810  -12.8560 O   0  0  0  0  0  0  0  0  0  0  0  0
    2.9430   12.3040  -12.4860 N   0  0  0  0  0  0  0  0  0  0  0  0
    2.3650   13.5230  -12.4440 C   0  0  0  0  0  0  0  0  0  0  0  0
    3.0010   14.5490  -12.1320 O   0  0  0  0  0  0  0  0  0  0  0  0
    4.3540   12.2480  -12.1480 C   0  0  0  0  0  1  0  0  0  0  0  0
    0.1660   10.0840  -13.5000 C   0  0  0  0  0  1  0  0  0  0  0  0
    0.4820   16.1040  -12.5350 C   0  0  0  0  0  2  0  0  0  0  0  0
   -0.7780   16.9120  -12.4140 C   0  0  0  0  0  0  0  0  0  0  0  0
   -0.9410   17.7030  -11.3390 N   0  0  0  0  0  0  0  0  0  0  0  0
   -2.0640   18.4630  -11.1870 C   0  0  0  0  0  0  0  0  0  0  0  0
   -3.0380   18.4430  -12.1090 N   0  0  0  0  0  0  0  0  0  0  0  0
   -2.1810   19.2610  -10.0600 C   0  0  0  0  0  3  0  0  0  0  0  0
   -4.1490   19.1950  -11.9590 C   0  0  0  0  0  3  0  0  0  0  0  0
   -2.9330   17.6610  -13.2220 C   0  0  0  0  0  0  0  0  0  0  0  0
   -4.2740   19.9850  -10.8490 C   0  0  0  0  0  0  0  0  0  0  0  0
   -5.8530   21.0350  -10.6670 Br  0  0  0  0  0  0  0  0  0  0  0  0
   -3.2990   20.0360   -9.8790 C   0  0  0  0  0  3  0  0  0  0  0  0
   -1.7870   16.9060  -13.3450 C   0  0  0  0  0  3  0  0  0  0  0  0
   -3.8570   17.6720  -14.0500 O   0  0  0  0  0  0  0  0  0  0  0  0
  1  2  1  0  0  0  0
  1 14  1  0  0  0  0
  2 10  1  0  0  0  0
  3  2  2  0  0  0  0
  4  5  2  0  0  0  0
  4  3  1  0  0  0  0
  5  1  1  0  0  0  0
  6  3  1  0  0  0  0
  6  7  1  0  0  0  0
  7  9  1  0  0  0  0
  8  7  2  0  0  0  0
  9 10  1  0  0  0  0
  9 12  1  0  0  0  0
 10 11  2  0  0  0  0
 13  6  1  0  0  0  0
 14 15  1  0  0  0  0
 15 16  1  0  0  0  0
 16 17  2  0  0  0  0
 17 19  1  0  0  0  0
 18 20  1  0  0  0  0
 18 17  1  0  0  0  0
 19 24  2  0  0  0  0
 20 22  2  0  0  0  0
 21 18  1  0  0  0  0
 22 23  1  0  0  0  0
 22 24  1  0  0  0  0
 25 21  1  0  0  0  0
 25 15  2  0  0  0  0
 26 21  2  0  0  0  0
M  END
>  <Pose>
1

>  <Score>
-9.633

$$$$
