/Users/jonathanwahrer/Desktop/Msc/3_Semester/Drug_Design_Praktikum/waehrer_HTS_screening/HTS_experiment/out/docking_results/vina_output/6q9y/2416_docked.pdbqt
 OpenBabel03222220513D

 34 37  0  0  1  0  0  0  0  0999 V2000
    1.3590    9.7430  -13.1440 N   0  0  0  0  0  0  0  0  0  0  0  0
    2.5180   10.0630  -12.4440 C   0  0  0  0  0  2  0  0  0  0  0  0
    2.9250   11.5030  -12.7850 C   0  0  0  0  0  2  0  0  0  0  0  0
    1.7290   12.3450  -12.8470 N   0  0  0  0  0  0  0  0  0  0  0  0
    0.7090   11.9370  -13.7920 C   0  0  0  0  0  2  0  0  0  0  0  0
    1.1070   10.5350  -14.2750 C   0  0  0  0  0  2  0  0  0  0  0  0
    1.6050   13.4800  -11.9970 C   0  0  0  0  0  0  0  0  0  0  0  0
    2.5480   13.7160  -11.2070 O   0  0  0  0  0  0  0  0  0  0  0  0
    0.4150   14.3290  -12.0530 C   0  0  0  0  0  2  0  0  0  0  0  0
    0.7110   15.7960  -12.3270 C   0  0  2  0  0  3  0  0  0  0  0  0
    0.1820   16.6860  -11.3270 N   0  0  0  0  0  0  0  0  0  0  0  0
   -0.8680   17.6420  -11.3550 C   0  0  0  0  0  0  0  0  0  0  0  0
    0.6370   16.6570  -10.3610 H   0  0  0  0  0  0  0  0  0  0  0  0
   -0.8980   18.5720  -10.5060 O   0  0  0  0  0  0  0  0  0  0  0  0
   -2.0000   17.6950  -12.3060 C   0  0  0  0  0  0  0  0  0  0  0  0
   -2.0300   17.1670  -13.6020 C   0  0  0  0  0  0  0  0  0  0  0  0
   -3.1140   18.3270  -11.8180 C   0  0  0  0  0  3  0  0  0  0  0  0
   -3.1640   17.2950  -14.3530 C   0  0  0  0  0  3  0  0  0  0  0  0
   -0.9660   16.4850  -14.2480 N   0  0  0  0  0  0  0  0  0  0  0  0
   -4.3120   17.9340  -13.8820 C   0  0  0  0  0  3  0  0  0  0  0  0
   -4.2510   18.4470  -12.5860 C   0  0  0  0  0  3  0  0  0  0  0  0
    0.3110   16.1250  -13.7120 C   0  0  0  0  0  0  0  0  0  0  0  0
   -1.1480   16.2230  -15.2170 H   0  0  0  0  0  0  0  0  0  0  0  0
    1.2240   16.0940  -14.6100 O   0  0  0  0  0  0  0  0  0  0  0  0
    0.5130    8.3450  -12.8670 S   0  0  0  0  0  0  0  0  0  0  0  0
    1.2300    7.1940  -13.5490 O   0  0  0  0  0  0  0  0  0  0  0  0
    0.4230    7.9550  -11.4060 O   0  0  0  0  0  0  0  0  0  0  0  0
   -1.1300    8.3590  -13.5170 C   0  0  0  0  0  0  0  0  0  0  0  0
   -1.9450    9.4610  -13.3920 C   0  0  0  0  0  3  0  0  0  0  0  0
   -3.2210    9.4230  -13.9110 C   0  0  0  0  0  3  0  0  0  0  0  0
   -3.7400    8.3210  -14.5640 C   0  0  0  0  0  0  0  0  0  0  0  0
   -2.9150    7.2100  -14.6890 C   0  0  0  0  0  3  0  0  0  0  0  0
   -5.3430    8.2650  -15.2220 Cl  0  0  0  0  0  0  0  0  0  0  0  0
   -1.6420    7.2530  -14.1680 C   0  0  0  0  0  3  0  0  0  0  0  0
  1 25  1  0  0  0  0
  1  2  1  0  0  0  0
  3  2  1  0  0  0  0
  4  3  1  0  0  0  0
  4  7  1  0  0  0  0
  5  4  1  0  0  0  0
  6  5  1  0  0  0  0
  6  1  1  0  0  0  0
  7  8  2  0  0  0  0
  9  7  1  0  0  0  0
 10  9  1  1  0  0  0
 10 11  1  0  0  0  0
 11 13  1  0  0  0  0
 12 11  1  0  0  0  0
 12 14  2  0  0  0  0
 15 17  1  0  0  0  0
 15 12  1  0  0  0  0
 16 15  2  0  0  0  0
 18 20  2  0  0  0  0
 18 16  1  0  0  0  0
 19 22  1  0  0  0  0
 19 16  1  0  0  0  0
 20 21  1  0  0  0  0
 21 17  2  0  0  0  0
 22 10  1  0  0  0  0
 23 19  1  0  0  0  0
 24 22  2  0  0  0  0
 25 27  2  0  0  0  0
 26 25  2  0  0  0  0
 28 29  1  0  0  0  0
 28 25  1  0  0  0  0
 30 29  2  0  0  0  0
 31 30  1  0  0  0  0
 32 31  2  0  0  0  0
 32 34  1  0  0  0  0
 33 31  1  0  0  0  0
 34 28  2  0  0  0  0
M  END
>  <Pose>
1

>  <Score>
-9.561

$$$$
