/Users/jonathanwahrer/Desktop/Msc/3_Semester/Drug_Design_Praktikum/waehrer_HTS_screening/HTS_experiment/out/docking_results/vina_output/6q9y/2420_docked.pdbqt
 OpenBabel03222220523D

 29 32  0  0  1  0  0  0  0  0999 V2000
    2.1620    9.8310  -13.3070 N   0  0  0  0  0  0  0  0  0  0  0  0
    2.1130    9.4110  -14.7060 C   0  0  0  0  0  2  0  0  0  0  0  0
    2.7720    8.0500  -14.6750 C   0  0  2  0  0  3  0  0  0  0  0  0
    2.1660    7.4280  -13.4230 C   0  0  0  0  0  2  0  0  0  0  0  0
    1.8830    8.6370  -12.5710 C   0  0  0  0  0  0  0  0  0  0  0  0
    1.4590    8.6110  -11.3770 O   0  0  0  0  0  0  0  0  0  0  0  0
    4.2450    8.1520  -14.5370 C   0  0  0  0  0  0  0  0  0  0  0  0
    4.8170    9.1620  -15.0170 O   0  0  0  0  0  0  0  0  0  0  0  0
    5.0200    7.1610  -13.8930 N   0  0  0  0  0  0  0  0  0  0  0  0
    4.5060    6.3290  -13.5050 H   0  0  0  0  0  0  0  0  0  0  0  0
    6.4500    7.2540  -13.7550 C   0  0  0  0  0  2  0  0  0  0  0  0
    6.9740    6.0070  -13.0750 C   0  0  0  0  0  2  0  0  0  0  0  0
    8.3730    6.0980  -12.7340 N   0  0  0  0  0  0  0  0  0  0  0  0
    9.0040    4.8480  -13.1440 C   0  0  0  0  0  2  0  0  0  0  0  0
    9.3780    4.9040  -14.6230 C   0  0  0  0  0  2  0  0  0  0  0  0
   10.3820    5.8070  -14.8820 O   0  0  0  0  0  0  0  0  0  0  0  0
   10.4240    6.7470  -13.8780 C   0  0  0  0  0  2  0  0  0  0  0  0
    9.0400    7.1730  -13.4330 C   0  0  0  0  0  2  0  0  0  0  0  0
    2.4270   11.1330  -12.8100 C   0  0  0  0  0  0  0  0  0  0  0  0
    3.4990   11.6180  -12.1710 N   0  0  0  0  0  0  0  0  0  0  0  0
    3.3260   12.8980  -11.8800 N   0  0  0  0  0  0  0  0  0  0  0  0
    2.1050   13.3050  -12.3290 C   0  0  0  0  0  0  0  0  0  0  0  0
    3.9580   13.5780  -11.3890 H   0  0  0  0  0  0  0  0  0  0  0  0
    1.4100   14.4780  -12.3100 C   0  0  0  0  0  3  0  0  0  0  0  0
    1.5400   12.1980  -12.9130 C   0  0  0  0  0  0  0  0  0  0  0  0
    0.1540   14.5820  -12.8630 C   0  0  0  0  0  0  0  0  0  0  0  0
   -0.7960   16.2300  -12.8240 Br  0  0  0  0  0  0  0  0  0  0  0  0
   -0.4270   13.4600  -13.4590 C   0  0  0  0  0  3  0  0  0  0  0  0
    0.2730   12.2750  -13.4790 C   0  0  0  0  0  3  0  0  0  0  0  0
  1 19  1  0  0  0  0
  1  5  1  0  0  0  0
  2  3  1  0  0  0  0
  2  1  1  0  0  0  0
  3  7  1  1  0  0  0
  3  4  1  0  0  0  0
  4  5  1  0  0  0  0
  5  6  2  0  0  0  0
  7  9  1  0  0  0  0
  8  7  2  0  0  0  0
  9 11  1  0  0  0  0
  9 10  1  0  0  0  0
 11 12  1  0  0  0  0
 12 13  1  0  0  0  0
 14 13  1  0  0  0  0
 15 14  1  0  0  0  0
 16 15  1  0  0  0  0
 16 17  1  0  0  0  0
 17 18  1  0  0  0  0
 18 13  1  0  0  0  0
 19 20  2  0  0  0  0
 20 21  1  0  0  0  0
 21 23  1  0  0  0  0
 22 24  1  0  0  0  0
 22 21  1  0  0  0  0
 25 19  1  0  0  0  0
 25 22  2  0  0  0  0
 26 27  1  0  0  0  0
 26 24  2  0  0  0  0
 28 26  1  0  0  0  0
 29 28  2  0  0  0  0
 29 25  1  0  0  0  0
M  END
>  <Pose>
1

>  <Score>
-7.970

$$$$
