/Users/jonathanwahrer/Desktop/Msc/3_Semester/Drug_Design_Praktikum/waehrer_HTS_screening/HTS_experiment/out/docking_results/vina_output/6q9y/2432_docked.pdbqt
 OpenBabel03222220523D

 26 29  0  0  0  0  0  0  0  0999 V2000
   -0.1970    8.0560  -12.9960 C   0  0  0  0  0  0  0  0  0  0  0  0
   -0.2500    7.5580  -11.7750 O   0  0  0  0  0  0  0  0  0  0  0  0
    1.0620    8.3310  -13.5080 N   0  0  0  0  0  0  0  0  0  0  0  0
    2.2330    8.0870  -12.6310 C   0  0  0  0  0  2  0  0  0  0  0  0
    2.9050    9.4220  -12.4560 C   0  0  0  0  0  2  0  0  0  0  0  0
    2.3610   10.4740  -13.2550 N   0  0  0  0  0  0  0  0  0  0  0  0
    1.7750   10.2820  -14.5740 C   0  0  0  0  0  2  0  0  0  0  0  0
    1.4290    8.8170  -14.7860 C   0  0  0  0  0  2  0  0  0  0  0  0
   -1.5040    8.2220  -13.5750 C   0  0  0  0  0  0  0  0  0  0  0  0
   -2.2400    7.4030  -14.3280 N   0  0  0  0  0  0  0  0  0  0  0  0
   -3.4430    7.9550  -14.6510 C   0  0  0  0  0  0  0  0  0  0  0  0
   -2.0180    6.4540  -14.6890 H   0  0  0  0  0  0  0  0  0  0  0  0
   -4.7330    7.2630  -15.6110 Cl  0  0  0  0  0  0  0  0  0  0  0  0
   -3.5080    9.1990  -14.0840 C   0  0  0  0  0  0  0  0  0  0  0  0
   -2.3120    9.3570  -13.4250 C   0  0  0  0  0  3  0  0  0  0  0  0
   -4.8400   10.3290  -14.1920 Cl  0  0  0  0  0  0  0  0  0  0  0  0
    2.3710   11.8090  -12.7670 C   0  0  0  0  0  0  0  0  0  0  0  0
    3.4490   12.3110  -12.1340 N   0  0  0  0  0  0  0  0  0  0  0  0
    3.4750   13.5790  -11.6610 C   0  0  0  0  0  3  0  0  0  0  0  0
    2.4090   14.3840  -11.8130 N   0  0  0  0  0  0  0  0  0  0  0  0
    1.2960   13.9590  -12.4330 C   0  0  0  0  0  0  0  0  0  0  0  0
    0.1200   14.5510  -12.7100 N   0  0  0  0  0  0  0  0  0  0  0  0
    1.2860   12.6460  -12.9160 C   0  0  0  0  0  0  0  0  0  0  0  0
   -0.6210   13.6640  -13.3430 N   0  0  0  0  0  0  0  0  0  0  0  0
   -0.2950   15.9170  -12.3860 C   0  0  0  0  0  1  0  0  0  0  0  0
    0.0500   12.4970  -13.4880 C   0  0  0  0  0  3  0  0  0  0  0  0
  1  2  2  0  0  0  0
  3  1  1  0  0  0  0
  3  4  1  0  0  0  0
  4  5  1  0  0  0  0
  6 17  1  0  0  0  0
  6  5  1  0  0  0  0
  7  6  1  0  0  0  0
  8  7  1  0  0  0  0
  8  3  1  0  0  0  0
  9 15  2  0  0  0  0
  9  1  1  0  0  0  0
 10  9  1  0  0  0  0
 11 10  1  0  0  0  0
 11 14  2  0  0  0  0
 12 10  1  0  0  0  0
 13 11  1  0  0  0  0
 14 15  1  0  0  0  0
 16 14  1  0  0  0  0
 17 18  1  0  0  0  0
 18 19  2  0  0  0  0
 20 19  1  0  0  0  0
 21 20  2  0  0  0  0
 22 21  1  0  0  0  0
 22 25  1  0  0  0  0
 23 17  2  0  0  0  0
 23 21  1  0  0  0  0
 24 22  1  0  0  0  0
 26 24  2  0  0  0  0
 26 23  1  0  0  0  0
M  END
>  <Pose>
1

>  <Score>
-8.198

$$$$
