/Users/jonathanwahrer/Desktop/Msc/3_Semester/Drug_Design_Praktikum/waehrer_HTS_screening/HTS_experiment/out/docking_results/vina_output/6q9y/2447_docked.pdbqt
 OpenBabel03222220533D

 33 36  0  0  1  0  0  0  0  0999 V2000
   -3.7360    9.2460  -14.0410 C   0  0  1  0  0  3  0  0  0  0  0  0
   -3.4000    9.9900  -12.7930 C   0  0  0  0  0  0  0  0  0  0  0  0
   -4.2480   10.2320  -11.9010 O   0  0  0  0  0  0  0  0  0  0  0  0
   -2.0670   10.3850  -12.7150 O   0  0  0  0  0  0  0  0  0  0  0  0
   -1.0160    9.7250  -13.3160 C   0  0  0  0  0  3  0  0  0  0  0  0
   -1.2970    8.6130  -14.0310 C   0  0  0  0  0  0  0  0  0  0  0  0
   -2.6740    8.1800  -14.1240 C   0  0  0  0  0  0  0  0  0  0  0  0
   -2.9910    6.9870  -14.2630 O   0  0  0  0  0  0  0  0  0  0  0  0
   -0.2300    7.8450  -14.6870 C   0  0  0  0  0  2  0  0  0  0  0  0
    1.0800    8.1900  -14.3160 N   0  0  0  0  0  0  0  0  0  0  0  0
    1.4490    8.2880  -12.9680 C   0  0  0  0  0  2  0  0  0  0  0  0
    2.7090    9.1700  -12.8170 C   0  0  0  0  0  2  0  0  0  0  0  0
    2.4310   10.3480  -13.5980 N   0  0  0  0  0  0  0  0  0  0  0  0
    2.4080   10.1230  -15.0360 C   0  0  0  0  0  2  0  0  0  0  0  0
    1.9550    8.6950  -15.3100 C   0  0  0  0  0  2  0  0  0  0  0  0
    2.1890   11.6090  -13.0180 C   0  0  0  0  0  0  0  0  0  0  0  0
    1.0290   12.3270  -13.2000 C   0  0  0  0  0  3  0  0  0  0  0  0
    0.8440   13.5530  -12.6060 C   0  0  0  0  0  0  0  0  0  0  0  0
    1.7990   14.1300  -11.8020 C   0  0  0  0  0  3  0  0  0  0  0  0
   -0.6470   14.4140  -12.8760 Cl  0  0  0  0  0  0  0  0  0  0  0  0
    2.9660   13.4400  -11.6020 C   0  0  0  0  0  3  0  0  0  0  0  0
    3.1560   12.2020  -12.2000 C   0  0  0  0  0  3  0  0  0  0  0  0
   -5.1030    8.6590  -14.0260 C   0  0  0  0  0  2  0  0  0  0  0  0
   -5.9610    9.4630  -14.8240 N   0  0  0  0  0  0  0  0  0  0  0  0
   -6.3080   10.7420  -14.2570 C   0  0  0  0  0  2  0  0  0  0  0  0
   -7.7790   10.6890  -13.8940 C   0  0  0  0  0  2  0  0  0  0  0  0
   -8.5450   10.6650  -15.0950 N   0  0  0  0  0  0  0  0  0  0  0  0
   -7.9190    9.8880  -16.1150 C   0  0  0  0  0  2  0  0  0  0  0  0
   -6.9980    8.8130  -15.5360 C   0  0  0  0  0  2  0  0  0  0  0  0
   -9.1260   12.1800  -15.5990 S   0  0  0  0  0  0  0  0  0  0  0  0
   -8.9890   13.2560  -14.5430 O   0  0  0  0  0  0  0  0  0  0  0  0
   -8.2760   12.6420  -16.7750 O   0  0  0  0  0  0  0  0  0  0  0  0
  -10.7930   12.1560  -16.1430 C   0  0  0  0  0  1  0  0  0  0  0  0
  1 23  1  1  0  0  0
  1  2  1  0  0  0  0
  2  4  1  0  0  0  0
  2  3  2  0  0  0  0
  5  4  1  0  0  0  0
  6  5  2  0  0  0  0
  7  1  1  0  0  0  0
  7  6  1  0  0  0  0
  8  7  2  0  0  0  0
  9 10  1  0  0  0  0
  9  6  1  0  0  0  0
 10 11  1  0  0  0  0
 11 12  1  0  0  0  0
 13 16  1  0  0  0  0
 13 12  1  0  0  0  0
 14 13  1  0  0  0  0
 15 14  1  0  0  0  0
 15 10  1  0  0  0  0
 16 22  1  0  0  0  0
 17 16  2  0  0  0  0
 17 18  1  0  0  0  0
 18 19  2  0  0  0  0
 19 21  1  0  0  0  0
 20 18  1  0  0  0  0
 22 21  2  0  0  0  0
 24 25  1  0  0  0  0
 24 23  1  0  0  0  0
 25 26  1  0  0  0  0
 27 26  1  0  0  0  0
 28 29  1  0  0  0  0
 28 27  1  0  0  0  0
 29 24  1  0  0  0  0
 30 27  1  0  0  0  0
 30 31  2  0  0  0  0
 32 30  2  0  0  0  0
 33 30  1  0  0  0  0
M  END
>  <Pose>
1

>  <Score>
-7.425

$$$$
